<additional xmlns:xsi="http://www.w3.org/2001/XMLSchema-instance" xsi:noNamespaceSchemaLocation="http://sumo.dlr.de/xsd/additional_file.xsd">
    <laneAreaDetector file="incomingLoopDetectors.xml" freq="60" friendlyPos="x" id="e2det_-37555838#0_1-37555838#0_1" lane="-37555838#0_1" length="70.44" pos="0"/>
    <laneAreaDetector file="incomingLoopDetectors.xml" freq="60" friendlyPos="x" id="e2det_-166753092#6_1-166753092#6_1" lane="-166753092#6_1" length="250" pos="61.61"/>
    <laneAreaDetector file="incomingLoopDetectors.xml" freq="60" friendlyPos="x" id="e2det_-166753092#4_1" lane="-166753092#4_1" length="66.32" pos="0"/>
    <laneAreaDetector file="incomingLoopDetectors.xml" freq="60" friendlyPos="x" id="e2det_-166753092#6_2-166753092#6_2" lane="-166753092#6_2" length="250" pos="61.61"/>
    <laneAreaDetector file="incomingLoopDetectors.xml" freq="60" friendlyPos="x" id="e2det_166753092#4_2166753092#4_2" lane="166753092#4_2" length="66.49" pos="0"/>
    <laneAreaDetector file="incomingLoopDetectors.xml" freq="60" friendlyPos="x" id="e2det_-166753092#4_2" lane="-166753092#4_2" length="66.32" pos="0"/>
    <laneAreaDetector file="incomingLoopDetectors.xml" freq="60" friendlyPos="x" id="e2det_-324991274_1-324991274_1" lane="-324991274_1" length="64.98" pos="0"/>
    <laneAreaDetector file="incomingLoopDetectors.xml" freq="60" friendlyPos="x" id="e2det_-324985858#0_1-324985858#0_1" lane="-324985858#0_1" length="67.4" pos="0"/>
    <laneAreaDetector file="incomingLoopDetectors.xml" freq="60" friendlyPos="x" id="e2det_167589230#2_1167589230#2_1" lane="167589230#2_1" length="72.25" pos="0"/>
    <laneAreaDetector file="incomingLoopDetectors.xml" freq="60" friendlyPos="x" id="e2det_-167589230#3_1-167589230#3_1" lane="-167589230#3_1" length="98.01" pos="0"/>
    <laneAreaDetector file="incomingLoopDetectors.xml" freq="60" friendlyPos="x" id="e2det_-167589230#2_1" lane="-167589230#2_1" length="72.17" pos="0"/>
    <laneAreaDetector file="incomingLoopDetectors.xml" freq="60" friendlyPos="x" id="e2det_166753092#2_1166753092#2_1" lane="166753092#2_1" length="76.77" pos="0"/>
    <laneAreaDetector file="incomingLoopDetectors.xml" freq="60" friendlyPos="x" id="e2det_167589223#5_1167589223#5_1" lane="167589223#5_1" length="9.29" pos="0"/>
    <laneAreaDetector file="incomingLoopDetectors.xml" freq="60" friendlyPos="x" id="e2det_166753092#3_1" lane="166753092#3_1" length="84.0" pos="0"/>
    <laneAreaDetector file="incomingLoopDetectors.xml" freq="60" friendlyPos="x" id="e2det_166753092#2_2166753092#2_2" lane="166753092#2_2" length="76.77" pos="0"/>
    <laneAreaDetector file="incomingLoopDetectors.xml" freq="60" friendlyPos="x" id="e2det_-166753092#3_2-166753092#3_2" lane="-166753092#3_2" length="84.0" pos="0"/>
    <laneAreaDetector file="incomingLoopDetectors.xml" freq="60" friendlyPos="x" id="e2det_166753092#3_2" lane="166753092#3_2" length="84.0" pos="0"/>
    <laneAreaDetector file="incomingLoopDetectors.xml" freq="60" friendlyPos="x" id="e2det_-167589365#1_1-167589365#1_1" lane="-167589365#1_1" length="250" pos="28.51"/>
    <laneAreaDetector file="incomingLoopDetectors.xml" freq="60" friendlyPos="x" id="e2det_-167589230#1_1-167589230#1_1" lane="-167589230#1_1" length="53.36" pos="1.4155343564e-15"/>
    <laneAreaDetector file="incomingLoopDetectors.xml" freq="60" friendlyPos="x" id="e2det_167589365#0_1167589365#0_1" lane="167589365#0_1" length="98.73" pos="0"/>
    <laneAreaDetector file="incomingLoopDetectors.xml" freq="60" friendlyPos="x" id="e2det_167589230#0_1167589230#0_1" lane="167589230#0_1" length="57.54" pos="1.4155343564e-15"/>
    <laneAreaDetector file="incomingLoopDetectors.xml" freq="60" friendlyPos="x" id="e2det_167589230#1_1" lane="167589230#1_1" length="53.57" pos="1.4155343564e-15"/>
    <laneAreaDetector file="incomingLoopDetectors.xml" freq="60" friendlyPos="x" id="e2det_-166753911#1_1-166753911#1_1" lane="-166753911#1_1" length="245.98" pos="0"/>
    <laneAreaDetector file="incomingLoopDetectors.xml" freq="60" friendlyPos="x" id="e2det_37555834#5_137555834#5_1" lane="37555834#5_1" length="109.7" pos="0"/>
    <laneAreaDetector file="incomingLoopDetectors.xml" freq="60" friendlyPos="x" id="e2det_166753911#0_1166753911#0_1" lane="166753911#0_1" length="57.86" pos="1.4155343564e-15"/>
    <laneAreaDetector file="incomingLoopDetectors.xml" freq="60" friendlyPos="x" id="e2det_-166753911#0_1" lane="-166753911#0_1" length="54.99" pos="1.4155343564e-15"/>
    <laneAreaDetector file="incomingLoopDetectors.xml" freq="60" friendlyPos="x" id="e2det_167589230#8_1167589230#8_1" lane="167589230#8_1" length="82.89" pos="0"/>
    <laneAreaDetector file="incomingLoopDetectors.xml" freq="60" friendlyPos="x" id="e2det_244327259#4_1244327259#4_1" lane="244327259#4_1" length="149.7" pos="0"/>
    <laneAreaDetector file="incomingLoopDetectors.xml" freq="60" friendlyPos="x" id="e2det_244327259#5_1" lane="244327259#5_1" length="152.06" pos="0"/>
    <laneAreaDetector file="incomingLoopDetectors.xml" freq="60" friendlyPos="x" id="e2det_244327259#4_2244327259#4_2" lane="244327259#4_2" length="149.7" pos="0"/>
    <laneAreaDetector file="incomingLoopDetectors.xml" freq="60" friendlyPos="x" id="e2det_244329796#15_2244329796#15_2" lane="244329796#15_2" length="150.99" pos="0"/>
    <laneAreaDetector file="incomingLoopDetectors.xml" freq="60" friendlyPos="x" id="e2det_244327259#5_2" lane="244327259#5_2" length="152.06" pos="0"/>
    <laneAreaDetector file="incomingLoopDetectors.xml" freq="60" friendlyPos="x" id="e2det_244329796#13_1244329796#13_1" lane="244329796#13_1" length="152.11" pos="0"/>
    <laneAreaDetector file="incomingLoopDetectors.xml" freq="60" friendlyPos="x" id="e2det_-166800604#0_1-166800604#0_1" lane="-166800604#0_1" length="78.64" pos="0"/>
    <laneAreaDetector file="incomingLoopDetectors.xml" freq="60" friendlyPos="x" id="e2det_244329796#14_1" lane="244329796#14_1" length="109.89" pos="0"/>
    <laneAreaDetector file="incomingLoopDetectors.xml" freq="60" friendlyPos="x" id="e2det_244329796#13_2244329796#13_2" lane="244329796#13_2" length="152.11" pos="0"/>
    <laneAreaDetector file="incomingLoopDetectors.xml" freq="60" friendlyPos="x" id="e2det_244327259#6_2244327259#6_2" lane="244327259#6_2" length="116.27" pos="0"/>
    <laneAreaDetector file="incomingLoopDetectors.xml" freq="60" friendlyPos="x" id="e2det_244329796#14_2" lane="244329796#14_2" length="109.89" pos="0"/>
    <laneAreaDetector file="incomingLoopDetectors.xml" freq="60" friendlyPos="x" id="e2det_37555841#1_137555841#1_1" lane="37555841#1_1" length="168.58" pos="0"/>
    <laneAreaDetector file="incomingLoopDetectors.xml" freq="60" friendlyPos="x" id="e2det_324991740#3_1324991740#3_1" lane="324991740#3_1" length="58.8" pos="1.4155343564e-15"/>
    <laneAreaDetector file="incomingLoopDetectors.xml" freq="60" friendlyPos="x" id="e2det_-324991740#4_1-324991740#4_1" lane="-324991740#4_1" length="235.63" pos="0"/>
    <laneAreaDetector file="incomingLoopDetectors.xml" freq="60" friendlyPos="x" id="e2det_-37555841#2_1-37555841#2_1" lane="-37555841#2_1" length="54.22" pos="1.4155343564e-15"/>
    <laneAreaDetector file="incomingLoopDetectors.xml" freq="60" friendlyPos="x" id="e2det_324991740#4_1" lane="324991740#4_1" length="233.13" pos="0"/>
    <laneAreaDetector file="incomingLoopDetectors.xml" freq="60" friendlyPos="x" id="e2det_-167186112#2_1-167186112#2_1" lane="-167186112#2_1" length="110.83" pos="0"/>
    <laneAreaDetector file="incomingLoopDetectors.xml" freq="60" friendlyPos="x" id="e2det_-37555830#1_1-37555830#1_1" lane="-37555830#1_1" length="149.21" pos="0"/>
    <laneAreaDetector file="incomingLoopDetectors.xml" freq="60" friendlyPos="x" id="e2det_37555830#0_137555830#0_1" lane="37555830#0_1" length="250" pos="70.56"/>
    <laneAreaDetector file="incomingLoopDetectors.xml" freq="60" friendlyPos="x" id="e2det_167186112#1_1167186112#1_1" lane="167186112#1_1" length="35.73" pos="1.4155343564e-15"/>
    <laneAreaDetector file="incomingLoopDetectors.xml" freq="60" friendlyPos="x" id="e2det_-167186112#1_1" lane="-167186112#1_1" length="35.73" pos="1.4155343564e-15"/>
    <laneAreaDetector file="incomingLoopDetectors.xml" freq="60" friendlyPos="x" id="e2det_-37555807#1_1-37555807#1_1" lane="-37555807#1_1" length="19.57" pos="1.4155343564e-15"/>
    <laneAreaDetector file="incomingLoopDetectors.xml" freq="60" friendlyPos="x" id="e2det_37555807#0_137555807#0_1" lane="37555807#0_1" length="97.16" pos="0"/>
    <laneAreaDetector file="incomingLoopDetectors.xml" freq="60" friendlyPos="x" id="e2det_37555829#1_137555829#1_1" lane="37555829#1_1" length="154.94" pos="0"/>
    <laneAreaDetector file="incomingLoopDetectors.xml" freq="60" friendlyPos="x" id="e2det_-37555829#1_1" lane="-37555829#1_1" length="155.49" pos="0"/>
    <laneAreaDetector file="incomingLoopDetectors.xml" freq="60" friendlyPos="x" id="e2det_-167186112#0_1-167186112#0_1" lane="-167186112#0_1" length="81.7" pos="0"/>
    <laneAreaDetector file="incomingLoopDetectors.xml" freq="60" friendlyPos="x" id="e2det_167186112#0_1" lane="167186112#0_1" length="81.7" pos="0"/>
    <laneAreaDetector file="incomingLoopDetectors.xml" freq="60" friendlyPos="x" id="e2det_-37555829#0_1-37555829#0_1" lane="-37555829#0_1" length="250" pos="383.07"/>
    <laneAreaDetector file="incomingLoopDetectors.xml" freq="60" friendlyPos="x" id="e2det_37555829#0_1" lane="37555829#0_1" length="250" pos="385.49"/>
    <laneAreaDetector file="incomingLoopDetectors.xml" freq="60" friendlyPos="x" id="e2det_-330927714#1_1-330927714#1_1" lane="-330927714#1_1" length="77.41" pos="0"/>
    <laneAreaDetector file="incomingLoopDetectors.xml" freq="60" friendlyPos="x" id="e2det_-167186112#5_1-167186112#5_1" lane="-167186112#5_1" length="77.11" pos="0"/>
    <laneAreaDetector file="incomingLoopDetectors.xml" freq="60" friendlyPos="x" id="e2det_167186112#4_1167186112#4_1" lane="167186112#4_1" length="68.92" pos="0"/>
    <laneAreaDetector file="incomingLoopDetectors.xml" freq="60" friendlyPos="x" id="e2det_330927714#0_1330927714#0_1" lane="330927714#0_1" length="211.45" pos="0"/>
    <laneAreaDetector file="incomingLoopDetectors.xml" freq="60" friendlyPos="x" id="e2det_-167186112#4_1" lane="-167186112#4_1" length="73.28" pos="0"/>
    <laneAreaDetector file="incomingLoopDetectors.xml" freq="60" friendlyPos="x" id="e2det_167186112#2_1" lane="167186112#2_1" length="110.83" pos="0"/>
    <laneAreaDetector file="incomingLoopDetectors.xml" freq="60" friendlyPos="x" id="e2det_-331667958#0_1-331667958#0_1" lane="-331667958#0_1" length="250" pos="171.94"/>
    <laneAreaDetector file="incomingLoopDetectors.xml" freq="60" friendlyPos="x" id="e2det_167584430#0_1" lane="167584430#0_1" length="250" pos="342.4"/>
    <laneAreaDetector file="incomingLoopDetectors.xml" freq="60" friendlyPos="x" id="e2det_-320244139#1_1-320244139#1_1" lane="-320244139#1_1" length="66.74" pos="0"/>
    <laneAreaDetector file="incomingLoopDetectors.xml" freq="60" friendlyPos="x" id="e2det_167584430#1_1167584430#1_1" lane="167584430#1_1" length="89.69" pos="0"/>
    <laneAreaDetector file="incomingLoopDetectors.xml" freq="60" friendlyPos="x" id="e2det_37555809#6_137555809#6_1" lane="37555809#6_1" length="17.95" pos="1.4155343564e-15"/>
    <laneAreaDetector file="incomingLoopDetectors.xml" freq="60" friendlyPos="x" id="e2det_37555809#7_1" lane="37555809#7_1" length="89.51" pos="0"/>
    <laneAreaDetector file="incomingLoopDetectors.xml" freq="60" friendlyPos="x" id="e2det_-167456093_1" lane="-167456093_1" length="250" pos="216.26"/>
    <laneAreaDetector file="incomingLoopDetectors.xml" freq="60" friendlyPos="x" id="e2det_167456093_2167456093_2" lane="167456093_2" length="250" pos="214.62"/>
    <laneAreaDetector file="incomingLoopDetectors.xml" freq="60" friendlyPos="x" id="e2det_-167456093_2" lane="-167456093_2" length="250" pos="216.26"/>
    <laneAreaDetector file="incomingLoopDetectors.xml" freq="60" friendlyPos="x" id="e2det_167456090#0_1167456090#0_1" lane="167456090#0_1" length="117.27" pos="0"/>
    <laneAreaDetector file="incomingLoopDetectors.xml" freq="60" friendlyPos="x" id="e2det_-324734208#3_1-324734208#3_1" lane="-324734208#3_1" length="250" pos="179.78"/>
    <laneAreaDetector file="incomingLoopDetectors.xml" freq="60" friendlyPos="x" id="e2det_167456090#1_1" lane="167456090#1_1" length="123.76" pos="0"/>
    <laneAreaDetector file="incomingLoopDetectors.xml" freq="60" friendlyPos="x" id="e2det_167456090#0_2167456090#0_2" lane="167456090#0_2" length="117.27" pos="0"/>
    <laneAreaDetector file="incomingLoopDetectors.xml" freq="60" friendlyPos="x" id="e2det_167456091#0_2167456091#0_2" lane="167456091#0_2" length="124.06" pos="0"/>
    <laneAreaDetector file="incomingLoopDetectors.xml" freq="60" friendlyPos="x" id="e2det_324734208#1_1324734208#1_1" lane="324734208#1_1" length="134.2" pos="0"/>
    <laneAreaDetector file="incomingLoopDetectors.xml" freq="60" friendlyPos="x" id="e2det_167456090#1_2" lane="167456090#1_2" length="123.76" pos="0"/>
    <laneAreaDetector file="incomingLoopDetectors.xml" freq="60" friendlyPos="x" id="e2det_167456092#0_1167456092#0_1" lane="167456092#0_1" length="123.13" pos="0"/>
    <laneAreaDetector file="incomingLoopDetectors.xml" freq="60" friendlyPos="x" id="e2det_167456092#1_1" lane="167456092#1_1" length="119.07" pos="0"/>
    <laneAreaDetector file="incomingLoopDetectors.xml" freq="60" friendlyPos="x" id="e2det_167456092#0_2167456092#0_2" lane="167456092#0_2" length="123.13" pos="0"/>
    <laneAreaDetector file="incomingLoopDetectors.xml" freq="60" friendlyPos="x" id="e2det_167456088#0_2167456088#0_2" lane="167456088#0_2" length="118.95" pos="0"/>
    <laneAreaDetector file="incomingLoopDetectors.xml" freq="60" friendlyPos="x" id="e2det_68556150#5_168556150#5_1" lane="68556150#5_1" length="93.95" pos="0"/>
    <laneAreaDetector file="incomingLoopDetectors.xml" freq="60" friendlyPos="x" id="e2det_167456092#1_2" lane="167456092#1_2" length="119.07" pos="0"/>
    <laneAreaDetector file="incomingLoopDetectors.xml" freq="60" friendlyPos="x" id="e2det_451813960#1_1451813960#1_1" lane="451813960#1_1" length="109.66" pos="0"/>
    <laneAreaDetector file="incomingLoopDetectors.xml" freq="60" friendlyPos="x" id="e2det_167456695#0_1167456695#0_1" lane="167456695#0_1" length="250" pos="5.92"/>
    <laneAreaDetector file="incomingLoopDetectors.xml" freq="60" friendlyPos="x" id="e2det_167456695#1_1" lane="167456695#1_1" length="109.51" pos="0"/>
    <laneAreaDetector file="incomingLoopDetectors.xml" freq="60" friendlyPos="x" id="e2det_167456695#0_2167456695#0_2" lane="167456695#0_2" length="250" pos="5.92"/>
    <laneAreaDetector file="incomingLoopDetectors.xml" freq="60" friendlyPos="x" id="e2det_167456695#1_2" lane="167456695#1_2" length="109.51" pos="0"/>
    <laneAreaDetector file="incomingLoopDetectors.xml" freq="60" friendlyPos="x" id="e2det_167456695#0_3167456695#0_3" lane="167456695#0_3" length="250" pos="5.92"/>
    <laneAreaDetector file="incomingLoopDetectors.xml" freq="60" friendlyPos="x" id="e2det_167456695#1_3" lane="167456695#1_3" length="109.51" pos="0"/>
    <laneAreaDetector file="incomingLoopDetectors.xml" freq="60" friendlyPos="x" id="e2det_167456695#0_4167456695#0_4" lane="167456695#0_4" length="250" pos="5.92"/>
    <laneAreaDetector file="incomingLoopDetectors.xml" freq="60" friendlyPos="x" id="e2det_167456695#1_4" lane="167456695#1_4" length="109.51" pos="0"/>
    <laneAreaDetector file="incomingLoopDetectors.xml" freq="60" friendlyPos="x" id="e2det_-167457328_1-167457328_1" lane="-167457328_1" length="25.35" pos="1.4155343564e-15"/>
    <laneAreaDetector file="incomingLoopDetectors.xml" freq="60" friendlyPos="x" id="e2det_548059341#0_0548059341#0_0" lane="548059341#0_0" length="250" pos="96.99"/>
    <laneAreaDetector file="incomingLoopDetectors.xml" freq="60" friendlyPos="x" id="e2det_-167457329_1" lane="-167457329_1" length="250" pos="23.75"/>
    <laneAreaDetector file="incomingLoopDetectors.xml" freq="60" friendlyPos="x" id="e2det_167456698#0_1167456698#0_1" lane="167456698#0_1" length="250" pos="97.8"/>
    <laneAreaDetector file="incomingLoopDetectors.xml" freq="60" friendlyPos="x" id="e2det_167456693_2167456693_2" lane="167456693_2" length="250" pos="21.88"/>
    <laneAreaDetector file="incomingLoopDetectors.xml" freq="60" friendlyPos="x" id="e2det_-167457328_2-167457328_2" lane="-167457328_2" length="25.35" pos="1.4155343564e-15"/>
    <laneAreaDetector file="incomingLoopDetectors.xml" freq="60" friendlyPos="x" id="e2det_-167457329_2" lane="-167457329_2" length="250" pos="23.75"/>
    <laneAreaDetector file="incomingLoopDetectors.xml" freq="60" friendlyPos="x" id="e2det_167456088#0_1167456088#0_1" lane="167456088#0_1" length="118.95" pos="0"/>
    <laneAreaDetector file="incomingLoopDetectors.xml" freq="60" friendlyPos="x" id="e2det_167456088#1_1" lane="167456088#1_1" length="121.13" pos="0"/>
    <laneAreaDetector file="incomingLoopDetectors.xml" freq="60" friendlyPos="x" id="e2det_167456088#1_2" lane="167456088#1_2" length="121.13" pos="0"/>
    <laneAreaDetector file="incomingLoopDetectors.xml" freq="60" friendlyPos="x" id="e2det_36907637#1_136907637#1_1" lane="36907637#1_1" length="87.48" pos="0"/>
    <laneAreaDetector file="incomingLoopDetectors.xml" freq="60" friendlyPos="x" id="e2det_-361576970_1-361576970_1" lane="-361576970_1" length="189.67" pos="0"/>
    <laneAreaDetector file="incomingLoopDetectors.xml" freq="60" friendlyPos="x" id="e2det_331667211#0_1331667211#0_1" lane="331667211#0_1" length="194.24" pos="0"/>
    <laneAreaDetector file="incomingLoopDetectors.xml" freq="60" friendlyPos="x" id="e2det_-36907637#2_1-36907637#2_1" lane="-36907637#2_1" length="85.83" pos="0"/>
    <laneAreaDetector file="incomingLoopDetectors.xml" freq="60" friendlyPos="x" id="e2det_331667211#1_1" lane="331667211#1_1" length="189.09" pos="0"/>
    <laneAreaDetector file="incomingLoopDetectors.xml" freq="60" friendlyPos="x" id="e2det_-36897741#1_1-36897741#1_1" lane="-36897741#1_1" length="241.77" pos="0"/>
    <laneAreaDetector file="incomingLoopDetectors.xml" freq="60" friendlyPos="x" id="e2det_-758632812_0-758632812_0" lane="-758632812_0" length="60.52" pos="1.4155343564e-15"/>
    <laneAreaDetector file="incomingLoopDetectors.xml" freq="60" friendlyPos="x" id="e2det_36897741#0_136897741#0_1" lane="36897741#0_1" length="60.86" pos="1.4155343564e-15"/>
    <laneAreaDetector file="incomingLoopDetectors.xml" freq="60" friendlyPos="x" id="e2det_36897741#1_1" lane="36897741#1_1" length="241.49" pos="0"/>
    <laneAreaDetector file="incomingLoopDetectors.xml" freq="60" friendlyPos="x" id="e2det_-167584433#1_1-167584433#1_1" lane="-167584433#1_1" length="26.77" pos="1.4155343564e-15"/>
    <laneAreaDetector file="incomingLoopDetectors.xml" freq="60" friendlyPos="x" id="e2det_166751738#3_1166751738#3_1" lane="166751738#3_1" length="94.12" pos="0"/>
    <laneAreaDetector file="incomingLoopDetectors.xml" freq="60" friendlyPos="x" id="e2det_451815503_1451815503_1" lane="451815503_1" length="190.75" pos="0"/>
    <laneAreaDetector file="incomingLoopDetectors.xml" freq="60" friendlyPos="x" id="e2det_-167584433#0_1" lane="-167584433#0_1" length="94.14" pos="0"/>
    <laneAreaDetector file="incomingLoopDetectors.xml" freq="60" friendlyPos="x" id="e2det_-589495483_1-589495483_1" lane="-589495483_1" length="58.3" pos="1.4155343564e-15"/>
    <laneAreaDetector file="incomingLoopDetectors.xml" freq="60" friendlyPos="x" id="e2det_166751738#0_1166751738#0_1" lane="166751738#0_1" length="22.26" pos="1.4155343564e-15"/>
    <laneAreaDetector file="incomingLoopDetectors.xml" freq="60" friendlyPos="x" id="e2det_-166751738#1_1-166751738#1_1" lane="-166751738#1_1" length="130.71" pos="0"/>
    <laneAreaDetector file="incomingLoopDetectors.xml" freq="60" friendlyPos="x" id="e2det_166751738#1_1" lane="166751738#1_1" length="129.57" pos="0"/>
    <laneAreaDetector file="incomingLoopDetectors.xml" freq="60" friendlyPos="x" id="e2det_37573547#1_137573547#1_1" lane="37573547#1_1" length="223.0" pos="0"/>
    <laneAreaDetector file="incomingLoopDetectors.xml" freq="60" friendlyPos="x" id="e2det_167584432#2_1167584432#2_1" lane="167584432#2_1" length="21.24" pos="1.4155343564e-15"/>
    <laneAreaDetector file="incomingLoopDetectors.xml" freq="60" friendlyPos="x" id="e2det_167584432#3_1" lane="167584432#3_1" length="69.25" pos="0"/>
    <laneAreaDetector file="incomingLoopDetectors.xml" freq="60" friendlyPos="x" id="e2det_167584432#2_2167584432#2_2" lane="167584432#2_2" length="21.24" pos="1.4155343564e-15"/>
    <laneAreaDetector file="incomingLoopDetectors.xml" freq="60" friendlyPos="x" id="e2det_167584432#3_2" lane="167584432#3_2" length="69.25" pos="0"/>
    <laneAreaDetector file="incomingLoopDetectors.xml" freq="60" friendlyPos="x" id="e2det_167584434#3_1167584434#3_1" lane="167584434#3_1" length="95.39" pos="0"/>
    <laneAreaDetector file="incomingLoopDetectors.xml" freq="60" friendlyPos="x" id="e2det_451815500_1451815500_1" lane="451815500_1" length="209.24" pos="0"/>
    <laneAreaDetector file="incomingLoopDetectors.xml" freq="60" friendlyPos="x" id="e2det_167584434#4_1" lane="167584434#4_1" length="30.81" pos="1.4155343564e-15"/>
    <laneAreaDetector file="incomingLoopDetectors.xml" freq="60" friendlyPos="x" id="e2det_167584434#3_2167584434#3_2" lane="167584434#3_2" length="95.39" pos="0"/>
    <laneAreaDetector file="incomingLoopDetectors.xml" freq="60" friendlyPos="x" id="e2det_167584434#4_2" lane="167584434#4_2" length="30.81" pos="1.4155343564e-15"/>
    <laneAreaDetector file="incomingLoopDetectors.xml" freq="60" friendlyPos="x" id="e2det_-167585225#3_1-167585225#3_1" lane="-167585225#3_1" length="7.52" pos="0"/>
    <laneAreaDetector file="incomingLoopDetectors.xml" freq="60" friendlyPos="x" id="e2det_-167585225#2_1" lane="-167585225#2_1" length="14.1" pos="0"/>
    <laneAreaDetector file="incomingLoopDetectors.xml" freq="60" friendlyPos="x" id="e2det_167585225#2_2167585225#2_2" lane="167585225#2_2" length="14.1" pos="0"/>
    <laneAreaDetector file="incomingLoopDetectors.xml" freq="60" friendlyPos="x" id="e2det_49406379#6_049406379#6_0" lane="49406379#6_0" length="22.96" pos="1.4155343564e-15"/>
    <laneAreaDetector file="incomingLoopDetectors.xml" freq="60" friendlyPos="x" id="e2det_-167585225#3_2-167585225#3_2" lane="-167585225#3_2" length="7.52" pos="0"/>
    <laneAreaDetector file="incomingLoopDetectors.xml" freq="60" friendlyPos="x" id="e2det_-167585225#2_2" lane="-167585225#2_2" length="14.1" pos="0"/>
    <laneAreaDetector file="incomingLoopDetectors.xml" freq="60" friendlyPos="x" id="e2det_37555842#2_137555842#2_1" lane="37555842#2_1" length="47.75" pos="1.4155343564e-15"/>
    <laneAreaDetector file="incomingLoopDetectors.xml" freq="60" friendlyPos="x" id="e2det_166753096#4_0166753096#4_0" lane="166753096#4_0" length="66.6" pos="0"/>
    <laneAreaDetector file="incomingLoopDetectors.xml" freq="60" friendlyPos="x" id="e2det_166753096#5_0" lane="166753096#5_0" length="77.89" pos="0"/>
    <laneAreaDetector file="incomingLoopDetectors.xml" freq="60" friendlyPos="x" id="e2det_166753096#4_1166753096#4_1" lane="166753096#4_1" length="66.6" pos="0"/>
    <laneAreaDetector file="incomingLoopDetectors.xml" freq="60" friendlyPos="x" id="e2det_29376270#1_129376270#1_1" lane="29376270#1_1" length="78.97" pos="0"/>
    <laneAreaDetector file="incomingLoopDetectors.xml" freq="60" friendlyPos="x" id="e2det_166753096#5_1" lane="166753096#5_1" length="77.89" pos="0"/>
    <laneAreaDetector file="incomingLoopDetectors.xml" freq="60" friendlyPos="x" id="e2det_166800604#6_1166800604#6_1" lane="166800604#6_1" length="0.1" pos="0"/>
    <laneAreaDetector file="incomingLoopDetectors.xml" freq="60" friendlyPos="x" id="e2det_167585225#0_1" lane="167585225#0_1" length="24.74" pos="1.4155343564e-15"/>
    <laneAreaDetector file="incomingLoopDetectors.xml" freq="60" friendlyPos="x" id="e2det_167585225#0_2" lane="167585225#0_2" length="24.74" pos="1.4155343564e-15"/>
    <laneAreaDetector file="incomingLoopDetectors.xml" freq="60" friendlyPos="x" id="e2det_29375467#0_029375467#0_0" lane="29375467#0_0" length="126.49" pos="0"/>
    <laneAreaDetector file="incomingLoopDetectors.xml" freq="60" friendlyPos="x" id="e2det_29375467#1_0" lane="29375467#1_0" length="250" pos="569.04"/>
    <laneAreaDetector file="incomingLoopDetectors.xml" freq="60" friendlyPos="x" id="e2det_29375467#0_129375467#0_1" lane="29375467#0_1" length="126.49" pos="0"/>
    <laneAreaDetector file="incomingLoopDetectors.xml" freq="60" friendlyPos="x" id="e2det_29375467#1_1" lane="29375467#1_1" length="250" pos="569.04"/>
    <laneAreaDetector file="incomingLoopDetectors.xml" freq="60" friendlyPos="x" id="e2det_-167589223#1_1-167589223#1_1" lane="-167589223#1_1" length="113.18" pos="0"/>
    <laneAreaDetector file="incomingLoopDetectors.xml" freq="60" friendlyPos="x" id="e2det_167589223#0_1167589223#0_1" lane="167589223#0_1" length="40.35" pos="1.4155343564e-15"/>
    <laneAreaDetector file="incomingLoopDetectors.xml" freq="60" friendlyPos="x" id="e2det_330930016#1_1330930016#1_1" lane="330930016#1_1" length="41.45" pos="1.4155343564e-15"/>
    <laneAreaDetector file="incomingLoopDetectors.xml" freq="60" friendlyPos="x" id="e2det_-167589223#0_1" lane="-167589223#0_1" length="39.74" pos="1.4155343564e-15"/>
    <laneAreaDetector file="incomingLoopDetectors.xml" freq="60" friendlyPos="x" id="e2det_167468378#0_1167468378#0_1" lane="167468378#0_1" length="29.25" pos="1.4155343564e-15"/>
    <laneAreaDetector file="incomingLoopDetectors.xml" freq="60" friendlyPos="x" id="e2det_-167583193#0_1-167583193#0_1" lane="-167583193#0_1" length="250" pos="14.4"/>
    <laneAreaDetector file="incomingLoopDetectors.xml" freq="60" friendlyPos="x" id="e2det_167468378#1_1" lane="167468378#1_1" length="13.74" pos="0"/>
    <laneAreaDetector file="incomingLoopDetectors.xml" freq="60" friendlyPos="x" id="e2det_167468378#0_2167468378#0_2" lane="167468378#0_2" length="29.25" pos="1.4155343564e-15"/>
    <laneAreaDetector file="incomingLoopDetectors.xml" freq="60" friendlyPos="x" id="e2det_167468378#1_2" lane="167468378#1_2" length="13.74" pos="0"/>
    <laneAreaDetector file="incomingLoopDetectors.xml" freq="60" friendlyPos="x" id="e2det_37555809#3_137555809#3_1" lane="37555809#3_1" length="105.19" pos="0"/>
    <laneAreaDetector file="incomingLoopDetectors.xml" freq="60" friendlyPos="x" id="e2det_37571582#1_137571582#1_1" lane="37571582#1_1" length="147.17" pos="0"/>
    <laneAreaDetector file="incomingLoopDetectors.xml" freq="60" friendlyPos="x" id="e2det_-331667964#1_1-331667964#1_1" lane="-331667964#1_1" length="18.4" pos="1.4155343564e-15"/>
    <laneAreaDetector file="incomingLoopDetectors.xml" freq="60" friendlyPos="x" id="e2det_167584430#5_1167584430#5_1" lane="167584430#5_1" length="70.75" pos="0"/>
    <laneAreaDetector file="incomingLoopDetectors.xml" freq="60" friendlyPos="x" id="e2det_167584430#6_1" lane="167584430#6_1" length="231.43" pos="0"/>
    <laneAreaDetector file="incomingLoopDetectors.xml" freq="60" friendlyPos="x" id="e2det_167584434#5_1167584434#5_1" lane="167584434#5_1" length="241.05" pos="0"/>
    <laneAreaDetector file="incomingLoopDetectors.xml" freq="60" friendlyPos="x" id="e2det_37555823#4_137555823#4_1" lane="37555823#4_1" length="117.15" pos="0"/>
    <laneAreaDetector file="incomingLoopDetectors.xml" freq="60" friendlyPos="x" id="e2det_167584434#6_1" lane="167584434#6_1" length="31.4" pos="1.4155343564e-15"/>
    <laneAreaDetector file="incomingLoopDetectors.xml" freq="60" friendlyPos="x" id="e2det_167584434#5_2167584434#5_2" lane="167584434#5_2" length="241.05" pos="0"/>
    <laneAreaDetector file="incomingLoopDetectors.xml" freq="60" friendlyPos="x" id="e2det_167584434#6_2" lane="167584434#6_2" length="31.4" pos="1.4155343564e-15"/>
    <laneAreaDetector file="incomingLoopDetectors.xml" freq="60" friendlyPos="x" id="e2det_-167589223#4_1-167589223#4_1" lane="-167589223#4_1" length="2.69" pos="8.32667268469e-17"/>
    <laneAreaDetector file="incomingLoopDetectors.xml" freq="60" friendlyPos="x" id="e2det_167589223#3_1167589223#3_1" lane="167589223#3_1" length="123.79" pos="0"/>
    <laneAreaDetector file="incomingLoopDetectors.xml" freq="60" friendlyPos="x" id="e2det_-257711537_1-257711537_1" lane="-257711537_1" length="121.52" pos="0"/>
    <laneAreaDetector file="incomingLoopDetectors.xml" freq="60" friendlyPos="x" id="e2det_-424729655_1-424729655_1" lane="-424729655_1" length="56.93" pos="1.4155343564e-15"/>
    <laneAreaDetector file="incomingLoopDetectors.xml" freq="60" friendlyPos="x" id="e2det_-167589223#3_1" lane="-167589223#3_1" length="122.96" pos="0"/>
    <laneAreaDetector file="incomingLoopDetectors.xml" freq="60" friendlyPos="x" id="e2det_-167583193#2_1-167583193#2_1" lane="-167583193#2_1" length="30.25" pos="1.4155343564e-15"/>
    <laneAreaDetector file="incomingLoopDetectors.xml" freq="60" friendlyPos="x" id="e2det_167583193#1_1167583193#1_1" lane="167583193#1_1" length="99.1" pos="0"/>
    <laneAreaDetector file="incomingLoopDetectors.xml" freq="60" friendlyPos="x" id="e2det_-167589230#0_1-167589230#0_1" lane="-167589230#0_1" length="56.5" pos="1.4155343564e-15"/>
    <laneAreaDetector file="incomingLoopDetectors.xml" freq="60" friendlyPos="x" id="e2det_167583193#2_1" lane="167583193#2_1" length="29.55" pos="1.4155343564e-15"/>
    <laneAreaDetector file="incomingLoopDetectors.xml" freq="60" friendlyPos="x" id="e2det_167589223#1_1" lane="167589223#1_1" length="113.34" pos="0"/>
    <laneAreaDetector file="incomingLoopDetectors.xml" freq="60" friendlyPos="x" id="e2det_330930077#3_1330930077#3_1" lane="330930077#3_1" length="137.96" pos="0"/>
    <laneAreaDetector file="incomingLoopDetectors.xml" freq="60" friendlyPos="x" id="e2det_330930076#0_1330930076#0_1" lane="330930076#0_1" length="100.24" pos="0"/>
    <laneAreaDetector file="incomingLoopDetectors.xml" freq="60" friendlyPos="x" id="e2det_-330930077#4_1-330930077#4_1" lane="-330930077#4_1" length="84.94" pos="0"/>