<routes>
    <vType id="Bus" accel="0.6" decel="3.5" sigma="0.5" length="10.1" minGap="1.0" maxSpeed="16.67" guiShape="bus" width="2.45" latAlignment="left" laneChangeModel="SL2015" lcStrategic="0.5" lcCooperative="0.0"/>
    <vType id="Auto" accel="0.7" decel="4.5" sigma="0.5" length="2.6" minGap="0.3" maxSpeed="16" guiShape="passenger/sedan" width="1.25" latAlignment="left" laneChangeModel="SL2015" lcStrategic="0.5" lcCooperative="0.0" />
    <vType id="MotorCycle" accel="0.9" decel="3.5" sigma="0.5" length="1.85" minGap="0.15" maxSpeed="17" guiShape="motorcycle" width="0.7" latAlignment="left" laneChangeModel="SL2015" lcStrategic="0.5" lcCooperative="0.0"/>
    <vType id="Car" accel="0.8" decel="4.5" sigma="0.5" length="3.6" minGap="0.5" maxSpeed="40" guiShape="passenger" width="1.5" latAlignment="left" laneChangeModel="SL2015" lcStrategic="0.5" lcCooperative="0.0"/>

	<route id="route_1" edges="167584711#0 167584434#1 167584434#2 167584434#3 167584434#4 167584434#5 167584434#6 167584434#8 167584434#9 167468131 167468375#0 167468375#1 167461557#0 167461557#1"/>
	<route id="route_2" edges="-358333263#1 -358333263#0 37358087#7 167461554#0 167461554#1 167461554#2 167468377#0 167468377#1 167468130 167468378#0 167468378#1 167584432#0 167584432#1 167584432#2 167584432#3 167584432#4 167584432#5 167584712"/>
	<route id="route_3" edges="-167456093 167456698#0 167456698#1 167458866 167457476#1 167457476#2 167457476#3 167459400#0 167459400#1 167459400#2 -166753092#6 -166753092#4 -166753092#3 -166753092#2 -166753092#1 -166753092#0 166753093#0 166753096#2 166753096#3 166753096#4 166753096#5 -167585225#0 -166800604#6 -166800604#5"/>
	<route id="route_4" edges="29375467#1 29376270#1 29376270#2 166753090#1 166753090#2 166753090#3 166753092#0 166753092#1 166753092#2 166753092#3 166753092#4 166753092#5 167459399#1 167459399#2 167459399#3 167457476#5 167457476#6 167457476#7 167458864 167456695#0 167456695#1 167456094"/>
	<route id="route_5" edges="167186112#0 167186112#1 167186112#2 167186112#4 167186112#5 331667958#2 320244139#3 320244139#5 320244139#6 320244139#7 320244139#8 320244139#9 320244139#11 320244139#12 320244139#13 645851118#3 317891653#2 317891653#3 167461551#5 167461551#0 167461551#1 167461552#0 335564510#0"/>
	<route id="route_6" edges="167461555 167461551#3 167462414 167462415#1 -645851118#3 -320244139#13 -320244139#12 -320244139#11 -320244139#9 -320244139#8 -320244139#7 -320244139#6 -320244139#5 -320244139#4 -331667958#2 -167186112#5 -167186112#4 -167186112#2 -167186112#1 -167186112#0"/>
	<route id="route_7" edges="324991740#4 166753911#0 166753911#1 166753911#2 172932752#5 -36907635#10 -36907635#9 -36907635#8 -36907635#6 -36907635#5 -36907635#4 -36907635#2 -36907635#0"/>
	<route id="route_8" edges="36907635#0 36907635#2 36907635#4 36907635#5 36907635#6 36907635#8 36907635#9 36907635#10 173008341#6 -166753911#2 -166753911#1 -166753911#0 -324991740#4"/>
	<route id="route_9" edges="167462465 167461551#1 167461552#0 167461552#1 167461552#2 167456692#0 167456692#1 167456692#2 -167457328 -167457329 -361576970 -331667211#0 -36907357#1"/>
	<route id="route_10" edges="36907357#1 331667211#0 331667211#1 167456693 167457328 167458863#0 167458863#2 167458863#3 167458863#4 167458863#5 167461555 167461551#3 167462414 335563875#0"/>
	<route id="route_11" edges="330925771#2 -167468132#3 -167468132#1 -167468132#0 167468375#1 167462409 173008341#1 173008341#4 173008341#5 173008341#6"/>
	<route id="route_12" edges="172932752#4 172932752#5 172932752#6 172932752#7 172932752#8 172932752#9 172932752#10 172932752#11 172932752#12 172932752#13 172932752#14 172932752#15 172932752#16 172932752#17 317891653#0 -330926044 -320244139#12 -320244139#11 -330925771#2"/>
	<route id="route_13" edges="331667958#0 331667958#1 331667958#2 331667958#3 331667958#4 331667958#5 331667958#7 37571582#1 167584430#6 167589223#0 167589223#1 167589223#3 257711537 -166753092#0 166753093#0 244327259#1 244327259#2 244327259#3 244327259#4 244327259#5 244327259#6 244329796#14"/>
	<route id="route_14" edges="244329796#13 244329796#14 244329796#15 244329796#16 244329796#17 244329796#18 244329796#19 166753090#1 166753090#2 166753090#3 166753092#0 -257711537 -167589223#3 -167589223#1 -167589223#0 167584434#8 -331667958#8 -331667958#7 -331667958#5 -331667958#4 -331667958#3 -331667958#2 -331667958#1 -331667958#0"/>
	<route id="route_15" edges="167584430#0 167584430#1 167584430#2 167584430#3 167584430#4 167584430#5 167584430#6 167589223#0 167589223#1 -167583193#2 167589230#0 167589230#1 167589230#2 167589230#3 167589230#4"/>
	<route id="route_16" edges="-167589230#4 -167589230#3 -167589230#2 -167589230#1 -167589230#0 167583193#2 -167589223#1 -167589223#0 37555809#2 37555809#3 37555809#4 37555809#5 37555809#6 37555809#7 -167186112#2"/>
	<route id="route_17" edges="37555829#0 167186112#1 167186112#2 167584430#1 167584430#2 167584430#3 167584430#4 167584430#5 167584430#6 167589223#0 167589223#1 167589223#3 257711537 -166753092#0 166753093#0 244327259#1 244327259#2 244327259#3 244327259#4"/>
	<route id="route_18" edges="244329796#16 244329796#17 244329796#18 244329796#19 166753090#1 166753090#2 166753090#3 166753092#0 -257711537 -167589223#3 -167589223#1 -167589223#0 37555809#2 37555809#3 37555809#4 37555809#5 37555809#6 37555809#7 -167186112#2 -167186112#1 -37555829#0"/>
	<route id="route_19" edges="166751738#1 166751738#3 167584433#1 167584433#2 167584433#3 -331667964#4 37573561#3 37573561#4 37573561#5 -37555807#1 -37555829#1 -37555829#0"/>
	<route id="route_20" edges="37555829#0 37555829#1 37555807#1 -37573561#5 -37573561#4 -37573561#3 -37573561#2 -37573561#1 -37573566#0 -167584433#2 -167584433#1 -167584433#0 -166751738#1"/>
	<route id="route_21" edges="166954897#0 166954897#3 166954897#4 166954897#5 166954897#6 166954897#7 244327259#1 244327259#2 244327259#3 244327259#4 244327259#5 244327259#6 244327259#7 -166753912#0"/>
	<route id="route_22" edges="244329796#13 244329796#14 244329796#15 244329796#16 244329796#17 244329796#18 244329796#19 244327260#2 244327260#3 244327260#6"/>
	<route id="route_23" edges="  167456697 36897741#0 "/>
	<route id="route_24" edges="317766697#1 167457326 "/>
	<route id="route_25" edges="317371668#1"/>
	<route id="route_27" edges="317371668#1 "/>
	<route id="route_26" edges="37571582#0 37571582#1 331667964#1 331667964#2 331667964#3 331667964#4 "/>
	
	
	

	<route id="route_28" edges="166954897#3"/>
<vehicle id="Auto_0" type="MotorCycle" route="route_1" depart="0" />
<vehicle id="Auto_1" type="Car" route="route_1" depart="0" />
<vehicle id="MotorCycle_2" type="Auto" route="route_21" depart="0" />
<vehicle id="MotorCycle_3" type="MotorCycle" route="route_21" depart="0" />
<vehicle id="Car_4" type="Bus" route="route_24" depart="0" />
<vehicle id="Car_5" type="Auto" route="route_24" depart="0" />
<vehicle id="Car_6" type="MotorCycle" route="route_24" depart="0" />
<vehicle id="Auto_7" type="Auto" route="route_25" depart="1" />
<vehicle id="Auto_8" type="Auto" route="route_15" depart="2" />
<vehicle id="Auto_9" type="Car" route="route_15" depart="2" />
<vehicle id="Car_10" type="MotorCycle" route="route_22" depart="2" />
<vehicle id="Bus_11" type="Auto" route="route_24" depart="2" />
<vehicle id="Auto_12" type="MotorCycle" route="route_2" depart="3" />
<vehicle id="Auto_13" type="Car" route="route_2" depart="3" />
<vehicle id="Bus_14" type="Auto" route="route_13" depart="3" />
<vehicle id="Bus_15" type="MotorCycle" route="route_13" depart="3" />
<vehicle id="Car_16" type="MotorCycle" route="route_23" depart="3" />
<vehicle id="MotorCycle_17" type="MotorCycle" route="route_5" depart="4" />
<vehicle id="Car_18" type="Auto" route="route_9" depart="4" />
<vehicle id="Car_19" type="MotorCycle" route="route_9" depart="4" />
<vehicle id="Bus_20" type="Auto" route="route_11" depart="4" />
<vehicle id="Bus_21" type="MotorCycle" route="route_11" depart="4" />
<vehicle id="MotorCycle_22" type="Auto" route="route_3" depart="5" />
<vehicle id="Bus_23" type="Car" route="route_7" depart="5" />
<vehicle id="Auto_24" type="Auto" route="route_23" depart="7" />
<vehicle id="Auto_25" type="MotorCycle" route="route_23" depart="7" />
<vehicle id="Auto_26" type="Car" route="route_23" depart="7" />
<vehicle id="Bus_27" type="MotorCycle" route="route_25" depart="7" />
<vehicle id="MotorCycle_28" type="Auto" route="route_11" depart="8" />
<vehicle id="Auto_29" type="MotorCycle" route="route_18" depart="8" />
<vehicle id="Car_30" type="Bus" route="route_20" depart="9" />
<vehicle id="Car_31" type="MotorCycle" route="route_20" depart="9" />
<vehicle id="MotorCycle_32" type="MotorCycle" route="route_3" depart="11" />
<vehicle id="MotorCycle_33" type="Auto" route="route_7" depart="12" />
<vehicle id="Auto_34" type="Bus" route="route_16" depart="12" />
<vehicle id="Car_35" type="MotorCycle" route="route_20" depart="13" />
<vehicle id="Auto_36" type="Auto" route="route_22" depart="13" />
<vehicle id="Bus_37" type="Auto" route="route_23" depart="13" />
<vehicle id="MotorCycle_38" type="Auto" route="route_21" depart="15" />
<vehicle id="Bus_39" type="MotorCycle" route="route_23" depart="15" />
<vehicle id="Bus_40" type="Auto" route="route_5" depart="16" />
<vehicle id="Bus_41" type="MotorCycle" route="route_5" depart="16" />
<vehicle id="Bus_42" type="Car" route="route_5" depart="16" />
<vehicle id="Auto_43" type="Auto" route="route_8" depart="17" />
<vehicle id="MotorCycle_44" type="MotorCycle" route="route_13" depart="17" />
<vehicle id="Bus_45" type="Bus" route="route_16" depart="18" />
<vehicle id="Bus_46" type="MotorCycle" route="route_16" depart="18" />
<vehicle id="Auto_47" type="MotorCycle" route="route_21" depart="19" />
<vehicle id="Bus_48" type="Auto" route="route_1" depart="21" />
<vehicle id="Bus_49" type="MotorCycle" route="route_1" depart="21" />
<vehicle id="Car_50" type="MotorCycle" route="route_25" depart="21" />
<vehicle id="Auto_51" type="Auto" route="route_21" depart="22" />
<vehicle id="Auto_52" type="MotorCycle" route="route_23" depart="22" />
<vehicle id="Bus_53" type="Auto" route="route_25" depart="22" />
<vehicle id="Car_54" type="MotorCycle" route="route_23" depart="23" />
<vehicle id="MotorCycle_55" type="Car" route="route_8" depart="24" />
<vehicle id="Bus_56" type="Bus" route="route_5" depart="25" />
<vehicle id="Bus_57" type="Car" route="route_5" depart="25" />
<vehicle id="Auto_58" type="Auto" route="route_6" depart="25" />
<vehicle id="Auto_59" type="MotorCycle" route="route_6" depart="25" />
<vehicle id="Car_60" type="Auto" route="route_19" depart="25" />
<vehicle id="Car_61" type="MotorCycle" route="route_19" depart="25" />
<vehicle id="Bus_62" type="Auto" route="route_21" depart="25" />
<vehicle id="MotorCycle_63" type="Auto" route="route_21" depart="27" />
<vehicle id="MotorCycle_64" type="Car" route="route_23" depart="27" />
<vehicle id="Auto_65" type="Auto" route="route_11" depart="28" />
<vehicle id="Auto_66" type="MotorCycle" route="route_10" depart="29" />
<vehicle id="Bus_67" type="Bus" route="route_24" depart="29" />
<vehicle id="Bus_68" type="Auto" route="route_24" depart="29" />
<vehicle id="Bus_69" type="Car" route="route_24" depart="29" />
<vehicle id="Car_70" type="Auto" route="route_5" depart="30" />
<vehicle id="Car_71" type="MotorCycle" route="route_5" depart="30" />
<vehicle id="Auto_72" type="Bus" route="route_3" depart="32" />
<vehicle id="Auto_73" type="MotorCycle" route="route_3" depart="32" />
<vehicle id="Auto_74" type="MotorCycle" route="route_4" depart="32" />
<vehicle id="Auto_75" type="Car" route="route_4" depart="32" />
<vehicle id="Car_76" type="MotorCycle" route="route_9" depart="32" />
<vehicle id="Car_77" type="Car" route="route_9" depart="32" />
<vehicle id="Auto_78" type="Auto" route="route_22" depart="32" />
<vehicle id="Auto_79" type="Car" route="route_22" depart="32" />
<vehicle id="Car_80" type="MotorCycle" route="route_6" depart="33" />
<vehicle id="MotorCycle_81" type="Car" route="route_12" depart="34" />
<vehicle id="Bus_82" type="MotorCycle" route="route_22" depart="35" />
<vehicle id="Auto_83" type="Auto" route="route_11" depart="36" />
<vehicle id="Auto_84" type="MotorCycle" route="route_11" depart="36" />
<vehicle id="Bus_85" type="Car" route="route_19" depart="36" />
<vehicle id="Bus_86" type="Auto" route="route_22" depart="37" />
<vehicle id="MotorCycle_87" type="MotorCycle" route="route_2" depart="38" />
<vehicle id="MotorCycle_88" type="MotorCycle" route="route_11" depart="38" />
<vehicle id="Bus_89" type="Auto" route="route_13" depart="38" />
<vehicle id="Bus_90" type="MotorCycle" route="route_13" depart="38" />
<vehicle id="MotorCycle_91" type="Car" route="route_17" depart="38" />
<vehicle id="Bus_92" type="Car" route="route_25" depart="38" />
<vehicle id="MotorCycle_93" type="MotorCycle" route="route_5" depart="39" />
<vehicle id="Auto_94" type="Car" route="route_7" depart="39" />
<vehicle id="Car_95" type="Auto" route="route_25" depart="39" />
<vehicle id="MotorCycle_96" type="Auto" route="route_11" depart="41" />
<vehicle id="MotorCycle_97" type="Auto" route="route_19" depart="41" />
<vehicle id="MotorCycle_98" type="MotorCycle" route="route_19" depart="41" />
<vehicle id="MotorCycle_99" type="Car" route="route_19" depart="41" />
<vehicle id="Car_100" type="Auto" route="route_21" depart="41" />
<vehicle id="Car_101" type="Car" route="route_21" depart="41" />
<vehicle id="Auto_102" type="Auto" route="route_9" depart="42" />
<vehicle id="Auto_103" type="Car" route="route_9" depart="42" />
<vehicle id="Bus_104" type="Car" route="route_11" depart="42" />
<vehicle id="MotorCycle_105" type="Auto" route="route_12" depart="42" />
<vehicle id="Auto_106" type="MotorCycle" route="route_4" depart="43" />
<vehicle id="Bus_107" type="Auto" route="route_6" depart="43" />
<vehicle id="Bus_108" type="Car" route="route_10" depart="43" />
<vehicle id="Car_109" type="MotorCycle" route="route_23" depart="43" />
<vehicle id="Car_110" type="Car" route="route_23" depart="43" />
<vehicle id="Auto_111" type="Auto" route="route_8" depart="44" />
<vehicle id="Bus_112" type="Auto" route="route_22" depart="44" />
<vehicle id="Bus_113" type="Car" route="route_22" depart="44" />
<vehicle id="Bus_114" type="Auto" route="route_10" depart="45" />
<vehicle id="Bus_115" type="Car" route="route_10" depart="45" />
<vehicle id="Car_116" type="MotorCycle" route="route_2" depart="48" />
<vehicle id="Bus_117" type="Car" route="route_2" depart="49" />
<vehicle id="Car_118" type="Auto" route="route_5" depart="49" />
<vehicle id="Car_119" type="MotorCycle" route="route_5" depart="49" />
<vehicle id="Bus_120" type="Car" route="route_8" depart="49" />
<vehicle id="MotorCycle_121" type="Auto" route="route_25" depart="49" />
<vehicle id="MotorCycle_122" type="MotorCycle" route="route_25" depart="49" />
<vehicle id="MotorCycle_123" type="Auto" route="route_3" depart="50" />
<vehicle id="MotorCycle_124" type="Car" route="route_3" depart="50" />
<vehicle id="Car_125" type="MotorCycle" route="route_13" depart="50" />
<vehicle id="Car_126" type="Car" route="route_13" depart="50" />
<vehicle id="Bus_127" type="Bus" route="route_22" depart="50" />
<vehicle id="Bus_128" type="Car" route="route_22" depart="50" />
<vehicle id="Car_129" type="MotorCycle" route="route_24" depart="51" />
<vehicle id="MotorCycle_130" type="MotorCycle" route="route_21" depart="52" />
<vehicle id="Auto_131" type="Auto" route="route_1" depart="53" />
<vehicle id="Auto_132" type="Auto" route="route_21" depart="53" />
<vehicle id="Auto_133" type="Auto" route="route_3" depart="55" />
<vehicle id="Auto_134" type="MotorCycle" route="route_3" depart="55" />
<vehicle id="Auto_135" type="Car" route="route_3" depart="55" />
<vehicle id="MotorCycle_136" type="Auto" route="route_8" depart="55" />
<vehicle id="Car_137" type="MotorCycle" route="route_25" depart="56" />
<vehicle id="Car_138" type="Auto" route="route_7" depart="57" />
<vehicle id="Car_139" type="MotorCycle" route="route_9" depart="57" />
<vehicle id="Auto_140" type="Auto" route="route_12" depart="57" />
<vehicle id="MotorCycle_141" type="Auto" route="route_18" depart="57" />
<vehicle id="Car_142" type="MotorCycle" route="route_21" depart="57" />
<vehicle id="Bus_143" type="Auto" route="route_5" depart="58" />
<vehicle id="Bus_144" type="MotorCycle" route="route_5" depart="58" />
<vehicle id="Bus_145" type="Auto" route="route_25" depart="59" />
<vehicle id="Bus_146" type="Car" route="route_25" depart="59" />
<vehicle id="MotorCycle_147" type="MotorCycle" route="route_8" depart="60" />
<vehicle id="MotorCycle_148" type="Car" route="route_22" depart="60" />
<vehicle id="Bus_149" type="Auto" route="route_19" depart="63" />
<vehicle id="Car_150" type="MotorCycle" route="route_21" depart="63" />
<vehicle id="Car_151" type="Car" route="route_21" depart="63" />
<vehicle id="Bus_152" type="Auto" route="route_2" depart="64" />
<vehicle id="Auto_153" type="Auto" route="route_2" depart="65" />
<vehicle id="Auto_154" type="MotorCycle" route="route_2" depart="65" />
<vehicle id="Auto_155" type="MotorCycle" route="route_7" depart="65" />
<vehicle id="MotorCycle_156" type="Bus" route="route_24" depart="65" />
<vehicle id="MotorCycle_157" type="MotorCycle" route="route_24" depart="65" />
<vehicle id="MotorCycle_158" type="MotorCycle" route="route_6" depart="66" />
<vehicle id="Car_159" type="Auto" route="route_7" depart="66" />
<vehicle id="Car_160" type="MotorCycle" route="route_7" depart="66" />
<vehicle id="MotorCycle_161" type="Car" route="route_13" depart="66" />
<vehicle id="Auto_162" type="MotorCycle" route="route_22" depart="66" />
<vehicle id="Auto_163" type="Bus" route="route_25" depart="66" />
<vehicle id="Auto_164" type="Auto" route="route_25" depart="66" />
<vehicle id="Car_165" type="Auto" route="route_2" depart="68" />
<vehicle id="Bus_166" type="MotorCycle" route="route_21" depart="68" />
<vehicle id="Bus_167" type="Auto" route="route_1" depart="69" />
<vehicle id="Bus_168" type="Car" route="route_1" depart="69" />
<vehicle id="MotorCycle_169" type="MotorCycle" route="route_7" depart="69" />
<vehicle id="MotorCycle_170" type="Car" route="route_7" depart="69" />
<vehicle id="Bus_171" type="MotorCycle" route="route_14" depart="69" />
<vehicle id="Bus_172" type="Bus" route="route_22" depart="69" />
<vehicle id="Car_173" type="MotorCycle" route="route_23" depart="69" />
<vehicle id="Auto_174" type="MotorCycle" route="route_25" depart="69" />
<vehicle id="Bus_175" type="MotorCycle" route="route_3" depart="70" />
<vehicle id="Bus_176" type="Car" route="route_3" depart="70" />
<vehicle id="MotorCycle_177" type="Auto" route="route_6" depart="70" />
<vehicle id="MotorCycle_178" type="Car" route="route_6" depart="70" />
<vehicle id="Bus_179" type="Bus" route="route_12" depart="70" />
<vehicle id="Bus_180" type="Auto" route="route_12" depart="70" />
<vehicle id="Bus_181" type="MotorCycle" route="route_12" depart="70" />
<vehicle id="Bus_182" type="Car" route="route_12" depart="70" />
<vehicle id="MotorCycle_183" type="Auto" route="route_16" depart="70" />
<vehicle id="Bus_184" type="MotorCycle" route="route_9" depart="71" />
<vehicle id="MotorCycle_185" type="Auto" route="route_20" depart="71" />
<vehicle id="MotorCycle_186" type="Auto" route="route_4" depart="72" />
<vehicle id="MotorCycle_187" type="MotorCycle" route="route_4" depart="72" />
<vehicle id="MotorCycle_188" type="Car" route="route_4" depart="72" />
<vehicle id="Bus_189" type="MotorCycle" route="route_11" depart="72" />
<vehicle id="Car_190" type="MotorCycle" route="route_1" depart="73" />
<vehicle id="Auto_191" type="MotorCycle" route="route_17" depart="74" />
<vehicle id="Car_192" type="MotorCycle" route="route_14" depart="75" />
<vehicle id="Auto_193" type="Car" route="route_7" depart="76" />
<vehicle id="Car_194" type="MotorCycle" route="route_12" depart="77" />
<vehicle id="Auto_195" type="Auto" route="route_23" depart="77" />
<vehicle id="MotorCycle_196" type="Auto" route="route_18" depart="78" />
<vehicle id="MotorCycle_197" type="Auto" route="route_21" depart="78" />
<vehicle id="MotorCycle_198" type="MotorCycle" route="route_7" depart="79" />
<vehicle id="MotorCycle_199" type="MotorCycle" route="route_8" depart="80" />
<vehicle id="MotorCycle_200" type="Auto" route="route_26" depart="81" />
<vehicle id="Car_201" type="Bus" route="route_6" depart="82" />
<vehicle id="Car_202" type="Auto" route="route_6" depart="82" />
<vehicle id="Car_203" type="MotorCycle" route="route_6" depart="82" />
<vehicle id="Auto_204" type="MotorCycle" route="route_10" depart="82" />
<vehicle id="Car_205" type="Car" route="route_23" depart="82" />
<vehicle id="MotorCycle_206" type="Auto" route="route_4" depart="84" />
<vehicle id="Car_207" type="Bus" route="route_5" depart="84" />
<vehicle id="Car_208" type="MotorCycle" route="route_5" depart="84" />
<vehicle id="Car_209" type="Auto" route="route_5" depart="85" />
<vehicle id="Car_210" type="MotorCycle" route="route_5" depart="85" />
<vehicle id="Bus_211" type="Auto" route="route_22" depart="85" />
<vehicle id="Bus_212" type="MotorCycle" route="route_22" depart="85" />
<vehicle id="Car_213" type="Auto" route="route_23" depart="85" />
<vehicle id="Car_214" type="MotorCycle" route="route_23" depart="85" />
<vehicle id="Car_215" type="Car" route="route_23" depart="85" />
<vehicle id="MotorCycle_216" type="MotorCycle" route="route_12" depart="86" />
<vehicle id="MotorCycle_217" type="MotorCycle" route="route_16" depart="86" />
<vehicle id="MotorCycle_218" type="Car" route="route_16" depart="86" />
<vehicle id="Auto_219" type="MotorCycle" route="route_4" depart="87" />
<vehicle id="Auto_220" type="MotorCycle" route="route_18" depart="87" />
<vehicle id="Car_221" type="Auto" route="route_25" depart="87" />
<vehicle id="MotorCycle_222" type="Auto" route="route_4" depart="88" />
<vehicle id="MotorCycle_223" type="MotorCycle" route="route_4" depart="88" />
<vehicle id="Auto_224" type="MotorCycle" route="route_7" depart="89" />
<vehicle id="MotorCycle_225" type="Auto" route="route_2" depart="90" />
<vehicle id="MotorCycle_226" type="MotorCycle" route="route_2" depart="90" />
<vehicle id="Car_227" type="Auto" route="route_13" depart="90" />
<vehicle id="Car_228" type="Car" route="route_13" depart="90" />
<vehicle id="Bus_229" type="MotorCycle" route="route_2" depart="91" />
<vehicle id="MotorCycle_230" type="Auto" route="route_9" depart="91" />
<vehicle id="Bus_231" type="Car" route="route_13" depart="92" />
<vehicle id="Bus_232" type="MotorCycle" route="route_7" depart="93" />
<vehicle id="Bus_233" type="Auto" route="route_10" depart="93" />
<vehicle id="Auto_234" type="MotorCycle" route="route_22" depart="93" />
<vehicle id="Car_235" type="MotorCycle" route="route_3" depart="94" />
<vehicle id="Car_236" type="Auto" route="route_24" depart="94" />
<vehicle id="Auto_237" type="Car" route="route_25" depart="94" />
<vehicle id="Car_238" type="Auto" route="route_3" depart="95" />
<vehicle id="Bus_239" type="MotorCycle" route="route_18" depart="95" />
<vehicle id="Bus_240" type="MotorCycle" route="route_7" depart="97" />
<vehicle id="MotorCycle_241" type="Auto" route="route_12" depart="98" />
<vehicle id="MotorCycle_242" type="MotorCycle" route="route_12" depart="98" />
<vehicle id="Car_243" type="Auto" route="route_22" depart="99" />
<vehicle id="Car_244" type="Auto" route="route_5" depart="102" />
<vehicle id="Car_245" type="MotorCycle" route="route_5" depart="102" />
<vehicle id="Auto_246" type="MotorCycle" route="route_13" depart="102" />
<vehicle id="Bus_247" type="Auto" route="route_13" depart="103" />
<vehicle id="Bus_248" type="MotorCycle" route="route_13" depart="103" />
<vehicle id="MotorCycle_249" type="Bus" route="route_23" depart="103" />
<vehicle id="MotorCycle_250" type="MotorCycle" route="route_23" depart="103" />
<vehicle id="Car_251" type="MotorCycle" route="route_11" depart="104" />
<vehicle id="Car_252" type="Car" route="route_11" depart="104" />
<vehicle id="Car_253" type="Auto" route="route_21" depart="104" />
<vehicle id="MotorCycle_254" type="MotorCycle" route="route_7" depart="105" />
<vehicle id="Bus_255" type="MotorCycle" route="route_9" depart="105" />
<vehicle id="Car_256" type="Auto" route="route_6" depart="106" />
<vehicle id="MotorCycle_257" type="Bus" route="route_20" depart="106" />
<vehicle id="Bus_258" type="Auto" route="route_21" depart="107" />
<vehicle id="Bus_259" type="MotorCycle" route="route_21" depart="107" />
<vehicle id="Bus_260" type="Car" route="route_21" depart="107" />
<vehicle id="Bus_261" type="MotorCycle" route="route_3" depart="108" />
<vehicle id="Bus_262" type="MotorCycle" route="route_4" depart="109" />
<vehicle id="Bus_263" type="MotorCycle" route="route_20" depart="109" />
<vehicle id="MotorCycle_264" type="Auto" route="route_12" depart="110" />
<vehicle id="Auto_265" type="MotorCycle" route="route_21" depart="110" />
<vehicle id="Bus_266" type="Auto" route="route_3" depart="111" />
<vehicle id="MotorCycle_267" type="MotorCycle" route="route_3" depart="112" />
<vehicle id="MotorCycle_268" type="Car" route="route_3" depart="112" />
<vehicle id="Car_269" type="MotorCycle" route="route_12" depart="113" />
<vehicle id="Bus_270" type="MotorCycle" route="route_13" depart="113" />
<vehicle id="MotorCycle_271" type="Car" route="route_17" depart="113" />
<vehicle id="Bus_272" type="MotorCycle" route="route_22" depart="113" />
<vehicle id="Bus_273" type="Car" route="route_22" depart="113" />
<vehicle id="MotorCycle_274" type="MotorCycle" route="route_15" depart="114" />
<vehicle id="MotorCycle_275" type="Car" route="route_15" depart="114" />
<vehicle id="Auto_276" type="MotorCycle" route="route_23" depart="114" />
<vehicle id="MotorCycle_277" type="Car" route="route_20" depart="115" />
<vehicle id="Car_278" type="Bus" route="route_7" depart="116" />
<vehicle id="Car_279" type="MotorCycle" route="route_7" depart="116" />
<vehicle id="Bus_280" type="Car" route="route_1" depart="117" />
<vehicle id="Car_281" type="MotorCycle" route="route_5" depart="117" />
<vehicle id="Auto_282" type="Bus" route="route_8" depart="118" />
<vehicle id="Auto_283" type="Auto" route="route_8" depart="118" />
<vehicle id="Auto_284" type="MotorCycle" route="route_8" depart="118" />
<vehicle id="MotorCycle_285" type="MotorCycle" route="route_10" depart="118" />
<vehicle id="MotorCycle_286" type="MotorCycle" route="route_12" depart="119" />
<vehicle id="Car_287" type="Car" route="route_22" depart="119" />
<vehicle id="Car_288" type="Auto" route="route_7" depart="121" />
<vehicle id="Car_289" type="MotorCycle" route="route_7" depart="121" />
<vehicle id="MotorCycle_290" type="Auto" route="route_23" depart="121" />
<vehicle id="MotorCycle_291" type="Car" route="route_23" depart="121" />
<vehicle id="Auto_292" type="Auto" route="route_9" depart="122" />
<vehicle id="Auto_293" type="Auto" route="route_17" depart="122" />
<vehicle id="Auto_294" type="MotorCycle" route="route_1" depart="123" />
<vehicle id="Bus_295" type="Bus" route="route_22" depart="123" />
<vehicle id="Bus_296" type="Auto" route="route_22" depart="123" />
<vehicle id="Bus_297" type="MotorCycle" route="route_22" depart="123" />
<vehicle id="Auto_298" type="MotorCycle" route="route_2" depart="124" />
<vehicle id="Auto_299" type="Car" route="route_2" depart="124" />
<vehicle id="Auto_300" type="Auto" route="route_6" depart="124" />
<vehicle id="Auto_301" type="MotorCycle" route="route_6" depart="124" />
<vehicle id="MotorCycle_302" type="Car" route="route_10" depart="124" />
<vehicle id="Bus_303" type="MotorCycle" route="route_20" depart="126" />
<vehicle id="Bus_304" type="Car" route="route_20" depart="126" />
<vehicle id="MotorCycle_305" type="Auto" route="route_5" depart="127" />
<vehicle id="Car_306" type="Bus" route="route_21" depart="127" />
<vehicle id="Car_307" type="Auto" route="route_21" depart="127" />
<vehicle id="Auto_308" type="Auto" route="route_26" depart="127" />
<vehicle id="MotorCycle_309" type="Auto" route="route_2" depart="128" />
<vehicle id="MotorCycle_310" type="MotorCycle" route="route_2" depart="128" />
<vehicle id="Auto_311" type="MotorCycle" route="route_13" depart="129" />
<vehicle id="Auto_312" type="Car" route="route_13" depart="129" />
<vehicle id="MotorCycle_313" type="Auto" route="route_15" depart="129" />
<vehicle id="Auto_314" type="MotorCycle" route="route_5" depart="131" />
<vehicle id="Bus_315" type="Auto" route="route_12" depart="131" />
<vehicle id="Auto_316" type="Auto" route="route_13" depart="131" />
<vehicle id="MotorCycle_317" type="Auto" route="route_22" depart="131" />
<vehicle id="MotorCycle_318" type="Car" route="route_22" depart="131" />
<vehicle id="Auto_319" type="MotorCycle" route="route_1" depart="132" />
<vehicle id="Car_320" type="MotorCycle" route="route_3" depart="132" />
<vehicle id="MotorCycle_321" type="Auto" route="route_21" depart="132" />
<vehicle id="MotorCycle_322" type="Auto" route="route_26" depart="132" />
<vehicle id="Auto_323" type="Auto" route="route_22" depart="133" />
<vehicle id="Auto_324" type="MotorCycle" route="route_22" depart="133" />
<vehicle id="Bus_325" type="MotorCycle" route="route_15" depart="134" />
<vehicle id="Bus_326" type="Bus" route="route_21" depart="134" />
<vehicle id="Auto_327" type="Auto" route="route_7" depart="135" />
<vehicle id="Auto_328" type="Car" route="route_7" depart="135" />
<vehicle id="MotorCycle_329" type="Auto" route="route_20" depart="135" />
<vehicle id="MotorCycle_330" type="Auto" route="route_21" depart="135" />
<vehicle id="Bus_331" type="MotorCycle" route="route_9" depart="136" />
<vehicle id="Auto_332" type="Car" route="route_25" depart="137" />