<?xml version="1.0" encoding="UTF-8"?>
<!-- generated on 2020-02-07 11:43:32.215016 by $Id$ via randomTrips.py
  options: 
-->
<routes xmlns:xsi="http://www.w3.org/2001/XMLSchema-instance" xsi:noNamespaceSchemaLocation="http://sumo.dlr.de/xsd/routes_file.xsd">
    <vType id="veh_passenger" vClass="passenger">
    </vType>
    <trip id="veh0" depart="0.00" departLane="best" from="244329796#5" to="-166825516#1" type="veh_passenger"/>
    <trip id="veh1" depart="0.88" departLane="best" from="-541908541" to="-37573547#0" type="veh_passenger"/>
    <trip id="veh2" depart="1.77" departLane="best" from="330927814" to="320244139#11" type="veh_passenger"/>
    <trip id="veh3" depart="2.65" departLane="best" from="447096918" to="-324991562#0" type="veh_passenger"/>
    <trip id="veh4" depart="3.53" departLane="best" from="167456692#2" to="-167454805#0" type="veh_passenger"/>
    <trip id="veh5" depart="4.41" departLane="best" from="-37555841#6" to="167468131" type="veh_passenger"/>
    <trip id="veh6" depart="5.30" departLane="best" from="-167186112#0" to="-37555836#0" type="veh_passenger"/>
    <trip id="veh7" depart="6.18" departLane="best" departSpeed="max" from="29375946#0" to="167585225#4" type="veh_passenger"/>
    <trip id="veh8" depart="7.06" departLane="best" from="-37555842#2" to="172932752#7" type="veh_passenger"/>
    <trip id="veh9" depart="7.94" departLane="best" from="36907637#4" to="-166753092#0" type="veh_passenger"/>
    <trip id="veh10" depart="8.83" departLane="best" from="36907635#9" to="325004666#1" type="veh_passenger"/>
    <trip id="veh11" depart="9.71" departLane="best" from="166753093#0" to="-335566458#1" type="veh_passenger"/>
    <trip id="veh12" depart="10.59" departLane="best" from="599812416#0" to="166753092#1" type="veh_passenger"/>
    <trip id="veh13" depart="11.47" departLane="best" from="-324991740#2" to="-325004668#0" type="veh_passenger"/>
    <trip id="veh14" depart="12.36" departLane="best" from="36907637#1" to="330926173#0" type="veh_passenger"/>
    <trip id="veh16" depart="14.12" departLane="best" from="166954897#8" to="167589223#1" type="veh_passenger"/>
    <trip id="veh17" depart="15.01" departLane="best" from="37555809#3" to="244327259#3" type="veh_passenger"/>
    <trip id="veh18" depart="15.89" departLane="best" from="37555841#6" to="172932752#12" type="veh_passenger"/>
    <trip id="veh19" depart="16.77" departLane="best" from="325004668#1" to="-167585225#2" type="veh_passenger"/>
    <trip id="veh20" depart="17.65" departLane="best" from="-37573550#1" to="-645851118#2" type="veh_passenger"/>
    <trip id="veh21" depart="18.54" departLane="best" from="-320244139#8" to="-37573566#2" type="veh_passenger"/>
    <trip id="veh22" depart="19.42" departLane="best" from="-325004669#1" to="-589495104" type="veh_passenger"/>
    <trip id="veh23" depart="20.30" departLane="best" from="244329796#17" to="166830335#0" type="veh_passenger"/>
    <trip id="veh24" depart="21.18" departLane="best" from="166849264#0" to="-37555840#1" type="veh_passenger"/>
    <trip id="veh25" depart="22.07" departLane="best" from="-451813964#1" to="541908331#0" type="veh_passenger"/>
    <trip id="veh26" depart="22.95" departLane="best" departSpeed="max" from="29375467#0" to="244327259#13" type="veh_passenger"/>
    <trip id="veh27" depart="23.83" departLane="best" from="-36897743#0" to="330926172#1" type="veh_passenger"/>
    <trip id="veh28" depart="24.71" departLane="best" from="-358333379#0" to="166954897#7" type="veh_passenger"/>
    <trip id="veh29" depart="25.60" departLane="best" from="757211197" to="244329796#16" type="veh_passenger"/>
    <trip id="veh30" depart="26.48" departLane="best" from="167589230#3" to="324734208#1" type="veh_passenger"/>
    <trip id="veh31" depart="27.36" departLane="best" from="37555834#4" to="335743402" type="veh_passenger"/>
    <trip id="veh32" depart="28.25" departLane="best" from="-37573559" to="-167454805#5" type="veh_passenger"/>
    <trip id="veh33" depart="29.13" departLane="best" from="142748779#2" to="-451815501#0" type="veh_passenger"/>
    <trip id="veh34" depart="30.01" departLane="best" from="-37555839#2" to="589495099" type="veh_passenger"/>
    <trip id="veh35" depart="30.89" departLane="best" from="37573561#5" to="166465027#2" type="veh_passenger"/>
    <trip id="veh36" depart="31.78" departLane="best" from="29375946#1" to="167452030#3" type="veh_passenger"/>
    <trip id="veh37" depart="32.66" departLane="best" from="451815501#1" to="167457328" type="veh_passenger"/>
    <trip id="veh38" depart="33.54" departLane="best" from="-451813962#2" to="-447096918" type="veh_passenger"/>
    <trip id="veh39" depart="34.42" departLane="best" from="167589365#0" to="-451813964#0" type="veh_passenger"/>
    <trip id="veh40" depart="35.31" departLane="best" from="172932752#5" to="451543628" type="veh_passenger"/>
    <trip id="veh41" depart="36.19" departLane="best" from="167456089#0" to="-37555843#1" type="veh_passenger"/>
    <trip id="veh42" depart="37.07" departLane="best" from="761196430" to="167468375#1" type="veh_passenger"/>
    <trip id="veh43" depart="37.95" departLane="best" from="-324991562#4" to="-167585225#3" type="veh_passenger"/>
    <trip id="veh44" depart="38.84" departLane="best" from="-330925771#2" to="244327260#3" type="veh_passenger"/>
    <trip id="veh45" depart="39.72" departLane="best" from="36877668#2" to="167456094" type="veh_passenger"/>
    <trip id="veh46" depart="40.60" departLane="best" from="-167589230#8" to="167186112#0" type="veh_passenger"/>
    <trip id="veh47" depart="41.48" departLane="best" from="761196429#0" to="167584433#3" type="veh_passenger"/>
    <trip id="veh49" depart="43.25" departLane="best" from="-166753092#6" to="330925510" type="veh_passenger"/>
    <trip id="veh50" depart="44.13" departLane="best" from="320244139#13" to="167584434#8" type="veh_passenger"/>
    <trip id="veh51" depart="45.02" departLane="best" from="-451813964#1" to="244329796#17" type="veh_passenger"/>
    <trip id="veh52" depart="45.90" departLane="best" from="-330925837#0" to="167456694#4" type="veh_passenger"/>
    <trip id="veh53" depart="46.78" departLane="best" from="167457476#0" to="599812416#1" type="veh_passenger"/>
    <trip id="veh54" depart="47.66" departLane="best" from="37573561#5" to="-451813964#0" type="veh_passenger"/>
    <trip id="veh55" depart="48.55" departLane="best" departSpeed="max" from="167462465" to="-36907637#0" type="veh_passenger"/>
    <trip id="veh56" depart="49.43" departLane="best" from="451815499#2" to="37573547#0" type="veh_passenger"/>
    <trip id="veh57" depart="50.31" departLane="best" from="-68556150#3" to="244329796#15" type="veh_passenger"/>
    <trip id="veh59" depart="52.08" departLane="best" from="331667964#6" to="167584712" type="veh_passenger"/>
    <trip id="veh60" depart="52.96" departLane="best" from="335566458#0" to="167584434#1" type="veh_passenger"/>
    <trip id="veh61" depart="53.84" departLane="best" from="-142748414" to="166465027#8" type="veh_passenger"/>
    <trip id="veh63" depart="55.61" departLane="best" from="37573566#3" to="37555809#9" type="veh_passenger"/>
    <trip id="veh64" depart="56.49" departLane="best" from="-758839296#1" to="-167589230#1" type="veh_passenger"/>
    <trip id="veh65" depart="57.37" departLane="best" from="37573566#2" to="589495106#1" type="veh_passenger"/>
    <trip id="veh66" depart="58.26" departLane="best" from="-324985858#2" to="167461551#2" type="veh_passenger"/>
    <trip id="veh67" depart="59.14" departLane="best" from="-30392427#0" to="335563875#1" type="veh_passenger"/>
    <trip id="veh68" depart="60.02" departLane="best" from="335564503" to="-330930084#0" type="veh_passenger"/>
    <trip id="veh69" depart="60.90" departLane="best" from="167459400#2" to="167585225#9" type="veh_passenger"/>
    <trip id="veh70" depart="61.79" departLane="best" from="-451813963" to="37573550#1" type="veh_passenger"/>
    <trip id="veh71" depart="62.67" departLane="best" from="167456692#3" to="-37555841#0" type="veh_passenger"/>
    <trip id="veh72" depart="63.55" departLane="best" from="167584712" to="330926173#0" type="veh_passenger"/>
    <trip id="veh73" depart="64.43" departLane="best" from="-37555836#1" to="142748779#1" type="veh_passenger"/>
    <trip id="veh74" depart="65.32" departLane="best" from="761196428" to="244329796#9" type="veh_passenger"/>
    <trip id="veh75" depart="66.20" departLane="best" from="167456700#2" to="167584430#1" type="veh_passenger"/>
    <trip id="veh76" depart="67.08" departLane="best" from="166753092#4" to="172932752#6" type="veh_passenger"/>
    <trip id="veh77" depart="67.96" departLane="best" from="-37573561#0" to="-37555844" type="veh_passenger"/>
    <trip id="veh78" depart="68.85" departLane="best" from="-37573559" to="451813961#0" type="veh_passenger"/>
    <trip id="veh81" depart="71.50" departLane="best" from="-37555841#0" to="-331667958#3" type="veh_passenger"/>
    <trip id="veh83" depart="73.26" departLane="best" from="167459400#0" to="358333381#2" type="veh_passenger"/>
    <trip id="veh84" depart="74.14" departLane="best" from="36907637#1" to="-37555823#3" type="veh_passenger"/>
    <trip id="veh85" depart="75.03" departLane="best" from="-325004667#1" to="167456693" type="veh_passenger"/>
    <trip id="veh86" depart="75.91" departLane="best" from="167456693" to="167457476#6" type="veh_passenger"/>
    <trip id="veh87" depart="76.79" departLane="best" from="734328902#9" to="-325004668#2" type="veh_passenger"/>
    <trip id="veh88" depart="77.67" departLane="best" from="167456089#3" to="166753092#3" type="veh_passenger"/>
    <trip id="veh89" depart="78.56" departLane="best" from="37555841#6" to="-447096920#1" type="veh_passenger"/>
    <trip id="veh90" depart="79.44" departLane="best" from="-37555823#0" to="167456700#6" type="veh_passenger"/>
    <trip id="veh91" depart="80.32" departLane="best" from="167456692#2" to="-589495105" type="veh_passenger"/>
    <trip id="veh93" depart="82.09" departLane="best" from="167456701#0" to="37555841#3" type="veh_passenger"/>
    <trip id="veh94" depart="82.97" departLane="best" from="761406514#1" to="37555823#1" type="veh_passenger"/>
    <trip id="veh96" depart="84.74" departLane="best" from="37555837#0" to="-361576970" type="veh_passenger"/>
    <trip id="veh97" depart="85.62" departLane="best" from="167461552#1" to="-37555841#3" type="veh_passenger"/>
    <trip id="veh98" depart="86.50" departLane="best" from="167456089#2" to="-167589230#2" type="veh_passenger"/>
    <trip id="veh99" depart="87.38" departLane="best" from="166954897#9" to="734641489" type="veh_passenger"/>
    <trip id="veh100" depart="88.27" departLane="best" from="-451813963" to="358333381#2" type="veh_passenger"/>
    <trip id="veh101" depart="89.15" departLane="best" from="167457476#1" to="167456094" type="veh_passenger"/>
    <trip id="veh102" depart="90.03" departLane="best" from="599812416#0" to="761196428" type="veh_passenger"/>
    <trip id="veh103" depart="90.91" departLane="best" from="167589230#1" to="330925509#0" type="veh_passenger"/>
    <trip id="veh104" depart="91.80" departLane="best" from="-335566452#2" to="-68556150#5" type="veh_passenger"/>
    <trip id="veh105" depart="92.68" departLane="best" from="68556150#2" to="172932752#14" type="veh_passenger"/>
    <trip id="veh106" depart="93.56" departLane="best" from="167585225#11" to="331667211#0" type="veh_passenger"/>
    <trip id="veh107" depart="94.44" departLane="best" from="-167589223#5" to="172932752#2" type="veh_passenger"/>
    <trip id="veh108" depart="95.33" departLane="best" departSpeed="max" from="167462465" to="37555838#2" type="veh_passenger"/>
    <trip id="veh109" depart="96.21" departLane="best" from="-335566458#1" to="681302158" type="veh_passenger"/>
    <trip id="veh110" depart="97.09" departLane="best" from="-320244139#9" to="-37555807#3" type="veh_passenger"/>
    <trip id="veh111" depart="97.97" departLane="best" from="173008341#5" to="317891653#3" type="veh_passenger"/>
    <trip id="veh112" depart="98.86" departLane="best" from="378366383" to="-424729655" type="veh_passenger"/>
    <trip id="veh113" depart="99.74" departLane="best" from="173008341#5" to="244327259#4" type="veh_passenger"/>
    <trip id="veh114" depart="100.62" departLane="best" from="167456691" to="172932752#2" type="veh_passenger"/>
    <trip id="veh117" depart="103.27" departLane="best" from="-378365819" to="167452030#3" type="veh_passenger"/>
    <trip id="veh118" depart="104.15" departLane="best" from="317371669" to="-757116822" type="veh_passenger"/>
    <trip id="veh119" depart="105.04" departLane="best" from="166465027#0" to="331667958#4" type="veh_passenger"/>
    <trip id="veh121" depart="106.80" departLane="best" from="761406514#0" to="761196429#0" type="veh_passenger"/>
    <trip id="veh122" depart="107.68" departLane="best" from="-320244139#1" to="-37555841#2" type="veh_passenger"/>
    <trip id="veh124" depart="109.45" departLane="best" from="378365819" to="37573566#1" type="veh_passenger"/>
    <trip id="veh126" depart="111.21" departLane="best" from="37555823#0" to="326198721#1" type="veh_passenger"/>
    <trip id="veh127" depart="112.10" departLane="best" from="244327259#3" to="734641490#1" type="veh_passenger"/>
    <trip id="veh128" depart="112.98" departLane="best" departSpeed="max" from="29375946#0" to="-166753092#2" type="veh_passenger"/>
    <trip id="veh130" depart="114.75" departLane="best" from="30392427#2" to="541908542#0" type="veh_passenger"/>
    <trip id="veh131" depart="115.63" departLane="best" from="-330925516#1" to="167589223#4" type="veh_passenger"/>
    <trip id="veh132" depart="116.51" departLane="best" from="-451815501#2" to="244327259#1" type="veh_passenger"/>
    <trip id="veh133" depart="117.39" departLane="best" departSpeed="max" from="326198755" to="-37555837#1" type="veh_passenger"/>
    <trip id="veh134" depart="118.28" departLane="best" from="244329796#16" to="-451813964#1" type="veh_passenger"/>
    <trip id="veh135" depart="119.16" departLane="best" from="167461554#1" to="451813961#0" type="veh_passenger"/>
    <trip id="veh136" depart="120.04" departLane="best" from="37555836#3" to="-324991740#3" type="veh_passenger"/>
    <trip id="veh137" depart="120.92" departLane="best" from="167456693" to="-589495100" type="veh_passenger"/>
    <trip id="veh138" depart="121.81" departLane="best" from="-166751738#0" to="335566452#1" type="veh_passenger"/>
    <trip id="veh139" depart="122.69" departLane="best" from="244329796#19" to="-451813962#2" type="veh_passenger"/>
    <trip id="veh140" depart="123.57" departLane="best" from="330929812#1" to="167589223#1" type="veh_passenger"/>
    <trip id="veh141" depart="124.45" departLane="best" from="167456694#3" to="-166753092#3" type="veh_passenger"/>
    <trip id="veh142" depart="125.34" departLane="best" from="-320244139#13" to="378365820#1" type="veh_passenger"/>
    <trip id="veh143" depart="126.22" departLane="best" from="451813960#1" to="167585225#5" type="veh_passenger"/>
    <trip id="veh144" depart="127.10" departLane="best" from="37555823#1" to="172932752#17" type="veh_passenger"/>
    <trip id="veh145" depart="127.99" departLane="best" from="-335564508#0" to="-330930077#4" type="veh_passenger"/>
    <trip id="veh146" depart="128.87" departLane="best" from="-758842950" to="451543629" type="veh_passenger"/>
    <trip id="veh147" depart="129.75" departLane="best" from="36897741#1" to="37555841#2" type="veh_passenger"/>
    <trip id="veh148" depart="130.63" departLane="best" from="-447096918" to="-330925509#1" type="veh_passenger"/>
    <trip id="veh149" depart="131.52" departLane="best" from="335743402" to="378365822#0" type="veh_passenger"/>
    <trip id="veh150" depart="132.40" departLane="best" from="167456089#7" to="244327259#5" type="veh_passenger"/>
    <trip id="veh152" depart="134.16" departLane="best" from="37555843#0" to="734328902#1" type="veh_passenger"/>
    <trip id="veh153" depart="135.05" departLane="best" from="36907637#6" to="37573567#0" type="veh_passenger"/>
    <trip id="veh154" depart="135.93" departLane="best" from="-166825516#0" to="330929812#0" type="veh_passenger"/>
    <trip id="veh156" depart="137.69" departLane="best" from="36907635#2" to="37555842#0" type="veh_passenger"/>
    <trip id="veh157" depart="138.58" departLane="best" from="36907637#6" to="-451815499#2" type="veh_passenger"/>
    <trip id="veh158" depart="139.46" departLane="best" from="358333381#0" to="-330925771#1" type="veh_passenger"/>
    <trip id="veh159" depart="140.34" departLane="best" from="37573550#2" to="37555840#3" type="veh_passenger"/>
    <trip id="veh160" depart="141.23" departLane="best" from="-37555844" to="37358087#2" type="veh_passenger"/>
    <trip id="veh161" depart="142.11" departLane="best" from="167457476#6" to="-761196428" type="veh_passenger"/>
    <trip id="veh162" depart="142.99" departLane="best" from="36897741#0" to="-37573561#0" type="veh_passenger"/>
    <trip id="veh163" depart="143.87" departLane="best" from="-166800604#6" to="-37555830#0" type="veh_passenger"/>
    <trip id="veh164" depart="144.76" departLane="best" from="166753090#0" to="37555842#0" type="veh_passenger"/>
    <trip id="veh165" depart="145.64" departLane="best" from="68556150#0" to="-589495106#0" type="veh_passenger"/>
    <trip id="veh166" depart="146.52" departLane="best" from="244329796#7" to="167454805#0" type="veh_passenger"/>
    <trip id="veh167" depart="147.40" departLane="best" from="734328902#6" to="167584434#8" type="veh_passenger"/>
    <trip id="veh169" depart="149.17" departLane="best" from="68556150#5" to="-36907637#0" type="veh_passenger"/>
    <trip id="veh170" depart="150.05" departLane="best" from="645851118#3" to="-451815499#0" type="veh_passenger"/>
    <trip id="veh171" depart="150.93" departLane="best" from="-330925771#0" to="167456694#4" type="veh_passenger"/>
    <trip id="veh172" depart="151.82" departLane="best" from="330925771#1" to="166465027#1" type="veh_passenger"/>
    <trip id="veh173" depart="152.70" departLane="best" from="244327259#13" to="167468377#1" type="veh_passenger"/>
    <trip id="veh174" depart="153.58" departLane="best" from="167452029#1" to="172932752#11" type="veh_passenger"/>
    <trip id="veh177" depart="156.23" departLane="best" from="167584711#0" to="330925509#1" type="veh_passenger"/>
    <trip id="veh178" depart="157.11" departLane="best" from="330930016#0" to="317766697#1" type="veh_passenger"/>
    <trip id="veh179" depart="158.00" departLane="best" from="166830335#0" to="-30392427#2" type="veh_passenger"/>
    <trip id="veh181" depart="159.76" departLane="best" from="142748414" to="37555836#3" type="veh_passenger"/>
    <trip id="veh182" depart="160.64" departLane="best" departSpeed="max" from="326198755" to="-757116822" type="veh_passenger"/>
    <trip id="veh183" depart="161.53" departLane="best" from="-761196429#0" to="167456089#3" type="veh_passenger"/>
    <trip id="veh184" depart="162.41" departLane="best" from="167456089#3" to="-68556150#3" type="veh_passenger"/>
    <trip id="veh185" depart="163.29" departLane="best" from="-330930077#1" to="167456094" type="veh_passenger"/>
    <trip id="veh186" depart="164.17" departLane="best" from="541908331#0" to="320244139#12" type="veh_passenger"/>
    <trip id="veh187" depart="165.06" departLane="best" from="451813960#0" to="244327259#18" type="veh_passenger"/>
    <trip id="veh188" depart="165.94" departLane="best" from="-734641489" to="167585225#7" type="veh_passenger"/>
    <trip id="veh189" depart="166.82" departLane="best" from="-142748414" to="-600315613" type="veh_passenger"/>
    <trip id="veh190" depart="167.70" departLane="best" from="167456694#5" to="172932752#14" type="veh_passenger"/>
    <trip id="veh191" depart="168.59" departLane="best" departSpeed="max" from="29375946#0" to="167457476#4" type="veh_passenger"/>
    <trip id="veh192" depart="169.47" departLane="best" from="167456700#6" to="-37555841#3" type="veh_passenger"/>
    <trip id="veh193" depart="170.35" departLane="best" from="167459400#0" to="451543631#0" type="veh_passenger"/>
    <trip id="veh194" depart="171.24" departLane="best" from="36897741#1" to="-36897743#1" type="veh_passenger"/>
    <trip id="veh195" depart="172.12" departLane="best" from="244329796#15" to="166753091#1" type="veh_passenger"/>
    <trip id="veh196" depart="173.00" departLane="best" from="37358087#2" to="331667958#3" type="veh_passenger"/>
    <trip id="veh197" depart="173.88" departLane="best" from="317766697#0" to="-37573550#0" type="veh_passenger"/>
    <trip id="veh198" depart="174.77" departLane="best" from="-37555834#4" to="-166825516#0" type="veh_passenger"/>
    <trip id="veh199" depart="175.65" departLane="best" from="-378365828#1" to="167458866" type="veh_passenger"/>
    <trip id="veh200" depart="176.53" departLane="best" from="37555838#0" to="-320244139#11" type="veh_passenger"/>
    <trip id="veh201" depart="177.41" departLane="best" from="167456091#1" to="244327260#6" type="veh_passenger"/>
    <trip id="veh202" depart="178.30" departLane="best" from="-37555829#1" to="324991740#4" type="veh_passenger"/>
    <trip id="veh203" depart="179.18" departLane="best" from="167462409" to="-378365890" type="veh_passenger"/>
    <trip id="veh204" depart="180.06" departLane="best" from="29375946#2" to="-166752271#1" type="veh_passenger"/>
    <trip id="veh206" depart="181.83" departLane="best" from="-330925516#0" to="167456691" type="veh_passenger"/>
    <trip id="veh207" depart="182.71" departLane="best" from="-36907635#10" to="645851118#2" type="veh_passenger"/>
    <trip id="veh208" depart="183.59" departLane="best" from="167584430#2" to="-167585225#6" type="veh_passenger"/>
    <trip id="veh209" depart="184.48" departLane="best" from="-424729655" to="37555836#3" type="veh_passenger"/>
    <trip id="veh210" depart="185.36" departLane="best" from="167457476#2" to="36907635#2" type="veh_passenger"/>
    <trip id="veh212" depart="187.12" departLane="best" from="173008341#6" to="589495109" type="veh_passenger"/>
    <trip id="veh213" depart="188.01" departLane="best" from="424699992" to="244327259#18" type="veh_passenger"/>
    <trip id="veh214" depart="188.89" departLane="best" departSpeed="max" from="326198755" to="167468131" type="veh_passenger"/>
    <trip id="veh215" depart="189.77" departLane="best" from="37555809#5" to="167585225#7" type="veh_passenger"/>
    <trip id="veh216" depart="190.65" departLane="best" from="451543629" to="330930077#4" type="veh_passenger"/>
    <trip id="veh217" depart="191.54" departLane="best" from="167459400#2" to="-451813961#0" type="veh_passenger"/>
    <trip id="veh218" depart="192.42" departLane="best" from="-378365890" to="244329796#13" type="veh_passenger"/>
    <trip id="veh219" depart="193.30" departLane="best" from="335564503" to="167584432#0" type="veh_passenger"/>
    <trip id="veh220" depart="194.18" departLane="best" from="244329796#1" to="-541908543" type="veh_passenger"/>
    <trip id="veh221" depart="195.07" departLane="best" from="-320244139#5" to="-599812416#1" type="veh_passenger"/>
    <trip id="veh222" depart="195.95" departLane="best" from="-451815501#1" to="166465027#6" type="veh_passenger"/>
    <trip id="veh223" depart="196.83" departLane="best" from="167584712" to="-331667964#4" type="veh_passenger"/>
    <trip id="veh224" depart="197.72" departLane="best" from="-37573561#2" to="324991740#0" type="veh_passenger"/>
    <trip id="veh225" depart="198.60" departLane="best" from="325004669#1" to="-167589365#1" type="veh_passenger"/>
    <trip id="veh226" depart="199.48" departLane="best" departSpeed="max" from="167456090#0" to="167585225#2" type="veh_passenger"/>
    <trip id="veh227" depart="200.36" departLane="best" from="167456092#0" to="-37555838#4" type="veh_passenger"/>
    <trip id="veh228" depart="201.25" departLane="best" from="167456692#0" to="451813960#1" type="veh_passenger"/>
    <trip id="veh229" depart="202.13" departLane="best" from="172932752#5" to="324991740#2" type="veh_passenger"/>
    <trip id="veh230" depart="203.01" departLane="best" from="37555840#3" to="335564508#0" type="veh_passenger"/>
    <trip id="veh231" depart="203.89" departLane="best" from="167186112#1" to="-166753092#0" type="veh_passenger"/>
    <trip id="veh232" depart="204.78" departLane="best" from="166754756#1" to="331667958#7" type="veh_passenger"/>
    <trip id="veh233" depart="205.66" departLane="best" from="37555839#1" to="599812416#0" type="veh_passenger"/>
    <trip id="veh234" depart="206.54" departLane="best" from="167456691" to="331667211#0" type="veh_passenger"/>
    <trip id="veh235" depart="207.42" departLane="best" from="167585225#5" to="244327259#0" type="veh_passenger"/>
    <trip id="veh236" depart="208.31" departLane="best" from="167456698#1" to="-167186112#5" type="veh_passenger"/>
    <trip id="veh237" depart="209.19" departLane="best" from="166753092#2" to="320244139#2" type="veh_passenger"/>
    <trip id="veh238" depart="210.07" departLane="best" from="167456089#5" to="-358333381#1" type="veh_passenger"/>
    <trip id="veh239" depart="210.95" departLane="best" from="167458863#5" to="-330930077#4" type="veh_passenger"/>
    <trip id="veh240" depart="211.84" departLane="best" departSpeed="max" from="244329796#0" to="-167186112#1" type="veh_passenger"/>
    <trip id="veh241" depart="212.72" departLane="best" from="167454805#1" to="167983966" type="veh_passenger"/>
    <trip id="veh242" depart="213.60" departLane="best" from="-167186112#1" to="244329796#18" type="veh_passenger"/>
    <trip id="veh243" depart="214.49" departLane="best" from="-331667958#5" to="167457476#1" type="veh_passenger"/>
    <trip id="veh244" depart="215.37" departLane="best" from="-167585225#6" to="166954897#6" type="veh_passenger"/>
    <trip id="veh245" depart="216.25" departLane="best" from="-37555840#0" to="166751738#0" type="veh_passenger"/>
    <trip id="veh246" depart="217.13" departLane="best" from="331667964#4" to="166954897#6" type="veh_passenger"/>
    <trip id="veh247" depart="218.02" departLane="best" from="331667211#0" to="37555809#9" type="veh_passenger"/>
    <trip id="veh248" depart="218.90" departLane="best" from="-451543626" to="-324734208#3" type="veh_passenger"/>
    <trip id="veh249" depart="219.78" departLane="best" from="-166800604#0" to="167584712" type="veh_passenger"/>
    <trip id="veh250" depart="220.66" departLane="best" from="761406514#2" to="166753911#0" type="veh_passenger"/>
    <trip id="veh251" depart="221.55" departLane="best" departSpeed="max" from="29375946#0" to="358333380#0" type="veh_passenger"/>
    <trip id="veh252" depart="222.43" departLane="best" departSpeed="max" from="29375946#0" to="331667958#8" type="veh_passenger"/>
    <trip id="veh253" depart="223.31" departLane="best" from="589495105" to="-37555836#1" type="veh_passenger"/>
    <trip id="veh254" depart="224.19" departLane="best" from="-166800604#1" to="-335566452#1" type="veh_passenger"/>
    <trip id="veh256" depart="225.96" departLane="best" departSpeed="max" from="172927507#0" to="-37555842#2" type="veh_passenger"/>
    <trip id="veh257" depart="226.84" departLane="best" from="324991740#3" to="335564509" type="veh_passenger"/>
    <trip id="veh258" depart="227.73" departLane="best" from="-358333381#2" to="244327259#12" type="veh_passenger"/>
    <trip id="veh259" depart="228.61" departLane="best" from="330930077#4" to="-330926173#1" type="veh_passenger"/>
    <trip id="veh260" depart="229.49" departLane="best" from="37358087#3" to="68556150#2" type="veh_passenger"/>
    <trip id="veh261" depart="230.37" departLane="best" from="-330925516#2" to="-166849264#0" type="veh_passenger"/>
    <trip id="veh262" depart="231.26" departLane="best" from="-761406514#1" to="320244139#12" type="veh_passenger"/>
    <trip id="veh263" depart="232.14" departLane="best" from="600315611" to="167452030#3" type="veh_passenger"/>
    <trip id="veh264" depart="233.02" departLane="best" from="326198747#0" to="-320244139#4" type="veh_passenger"/>
    <trip id="veh265" depart="233.90" departLane="best" from="324985858#0" to="244327260#3" type="veh_passenger"/>
    <trip id="veh266" depart="234.79" departLane="best" from="-327566305" to="335566453" type="veh_passenger"/>
    <trip id="veh267" depart="235.67" departLane="best" from="37555838#0" to="173008610" type="veh_passenger"/>
    <trip id="veh268" depart="236.55" departLane="best" from="-330929812#0" to="734328902#8" type="veh_passenger"/>
    <trip id="veh269" depart="237.43" departLane="best" from="346884802" to="166753096#4" type="veh_passenger"/>
    <trip id="veh270" depart="238.32" departLane="best" from="167456694#4" to="166835332#1" type="veh_passenger"/>
    <trip id="veh271" depart="239.20" departLane="best" from="167468132#0" to="166753092#5" type="veh_passenger"/>
    <trip id="veh272" depart="240.08" departLane="best" from="37555837#1" to="37358087#7" type="veh_passenger"/>
    <trip id="veh273" depart="240.97" departLane="best" from="-330925510" to="681302158" type="veh_passenger"/>
    <trip id="veh274" depart="241.85" departLane="best" from="244329796#17" to="37555809#4" type="veh_passenger"/>
    <trip id="veh275" depart="242.73" departLane="best" from="326198721#1" to="167456694#5" type="veh_passenger"/>
    <trip id="veh276" depart="243.61" departLane="best" from="330926173#0" to="68556150#3" type="veh_passenger"/>
    <trip id="veh277" depart="244.50" departLane="best" from="-451815500" to="36907637#4" type="veh_passenger"/>
    <trip id="veh278" depart="245.38" departLane="best" from="167584711#0" to="167459402#1" type="veh_passenger"/>
    <trip id="veh279" depart="246.26" departLane="best" from="167456698#0" to="330927714#0" type="veh_passenger"/>
    <trip id="veh280" depart="247.14" departLane="best" from="-451815499#0" to="37555838#0" type="veh_passenger"/>
    <trip id="veh281" depart="248.03" departLane="best" from="37555809#5" to="-324991562#0" type="veh_passenger"/>