<?xml version="1.0" encoding="UTF-8"?>

<!-- generated on Fri Feb  7 11:43:33 2020 by Eclipse SUMO duarouter Version 1.2.0
<configuration xmlns:xsi="http://www.w3.org/2001/XMLSchema-instance" xsi:noNamespaceSchemaLocation="http://sumo.dlr.de/xsd/duarouterConfiguration.xsd">

    <input>
        <net-file value="/home/shiraj/SomeMoreFiles/Some%20Files/sumo-master/tools/2020-02-07-11-43-25/osm.net.xml"/>
        <route-files value="/home/shiraj/SomeMoreFiles/Some%20Files/sumo-master/tools/2020-02-07-11-43-25/osm.pedestrian.trips.xml"/>
    </input>

    <output>
        <output-file value="/home/shiraj/SomeMoreFiles/Some%20Files/sumo-master/tools/2020-02-07-11-43-25/osm.pedestrian.rou.xml"/>
        <alternatives-output value="/home/shiraj/SomeMoreFiles/Some%20Files/sumo-master/tools/2020-02-07-11-43-25/osm.pedestrian.rou.alt.xml"/>
    </output>

    <time>
        <begin value="0"/>
        <end value="3600.0"/>
    </time>

    <report>
        <no-warnings value="true"/>
        <ignore-errors value="true"/>
        <no-step-log value="true"/>
    </report>

</configuration>
-->

<routes xmlns:xsi="http://www.w3.org/2001/XMLSchema-instance" xsi:noNamespaceSchemaLocation="http://sumo.dlr.de/xsd/routes_file.xsd">
    <vType id="ped_pedestrian" vClass="pedestrian"/>
    <person id="ped0" type="ped_pedestrian" depart="0.00">
        <walk edges="331667958#8 331667958#7 331667958#5 331667958#4 331667958#3 -320244139#2 -330927714#1 -167186112#4 -167186112#2"/>
    </person>
    <person id="ped1" type="ped_pedestrian" depart="0.98">
        <walk edges="-49406382#1 49406393 167585225#4 167585225#5 167585225#6 167585225#7 167585225#8 167585225#9 167584711#0 167584434#1 167584434#2 167584434#3 167584434#4 -167584433#0 -167584433#1 -167584433#2 37573566#0 37573561#1 -37573561#2"/>
    </person>
    <person id="ped2" type="ped_pedestrian" depart="1.97">
        <walk edges="37555841#6 244329796#16 244327259#5 166753911#0 166753911#1 166753911#2 172932752#5 -36907635#10 -36907635#9 -36907635#8 331656505 167456701#0 167456700#2 36897741#0"/>
    </person>
    <person id="ped4" type="ped_pedestrian" depart="3.93">
        <walk edges="167457327#2 167457327#1 167457327#6 167456692#3 167456692#2 167456692#1 167456692#0 734328902#2 734328902#1 167452030#0 167452030#1 36877668#0 36877668#1 36877668#2 -167454805#6"/>
    </person>
    <person id="ped5" type="ped_pedestrian" depart="4.91">
        <walk edges="-37573547#1 167584432#2 -37573550#0 -37573550#1 -37573550#2 -330930077#1 -330930077#2 424729655 -167589223#4 -167589223#5 166753092#2 -37555834#0 -37555834#1 -37555834#2 -37555834#3 -37555834#4 -37555834#5 -166753911#0 244327259#6 244327259#7 244327259#8 244327259#9 172932752#1"/>
    </person>
    <person id="ped6" type="ped_pedestrian" depart="5.90">
        <walk edges="-167186112#5 -331667958#2 -331667958#3 -331667958#4 -331667958#5 -331667958#7 -331667958#8 167584434#8 167589223#0 167589223#1 -167583193#2 167589230#0 167589230#1 -166753092#4 -37555838#0"/>
    </person>
    <person id="ped7" type="ped_pedestrian" depart="6.88">
        <walk edges="335564507#0 335564507#1 166465027#0 167454053 734328902#8 734328902#7 734328902#6 167461557#1 167461557#0 167462409 173008341#1 166753092#5 -37555838#0 -324991274 167589230#3 -37555836#1 -37555836#2 -37555836#3 -37555836#4 -37555836#5 244329796#18"/>
    </person>
    <person id="ped8" type="ped_pedestrian" depart="7.86">
        <walk edges="-37573550#2 -330930077#1 -330930077#2 424729655 -167589223#4 -167589223#5 166753092#2 -37555834#0 -37555834#1 -324985858#2 -37555836#4 -37555836#5 244329796#17 -37555841#6 -37555841#5 -37555841#4 -37555841#3 -37555841#2 324991740#4"/>
    </person>
    <person id="ped9" type="ped_pedestrian" depart="8.84">
        <walk edges="49335078#0 -49335078#1 -49406379#0 -49406379#1 -49406379#2 -49406379#4 -49406379#5 -49406379#6 -167585225#3 -167585225#4 -167585225#5 325004669#1 -325004667#1 325004668#1 325004668#0 -166752271#1 -37573547#0 -330930077#0 -330930077#1 -330930077#2 424729655 -167589223#4 -167589223#5 166753092#2 -166753092#1"/>
    </person>
    <person id="ped10" type="ped_pedestrian" depart="9.83">
        <walk edges="451815501#1 451815503 -167584433#0 167584434#5 167584434#6 167584434#8 167584434#9 167468131 167468375#0 167468375#1 167461557#0 167461557#1 734328902#5 734328902#4 734328902#3 734328902#2 734328902#1 734328902#0 37358087#7"/>
    </person>
    <person id="ped11" type="ped_pedestrian" depart="10.81">
        <walk edges="166465027#3 166465027#2 166465027#1 166465027#0 167454053 734328902#8 734328902#7 734328902#6 734328902#5 734328902#4 734328902#3 734328902#2 734328902#1 734328902#0 37358087#7 -358333263#0"/>
    </person>
    <person id="ped12" type="ped_pedestrian" depart="11.79">
        <walk edges="697465542#1 697465542#0 525615298#4 -612152027 525615153#2 525615153#1 697465543#1 697465543#0 526128853 172927507#2 29376004#0 29376004#1 244329796#9 244329796#10 244329796#11 -734350788 -734350790#0 -734350787#1 -734644053#1 -734644053#0 166800604#2 166800604#3 166800604#4 166800604#5 166800604#6 167585225#0 167585225#2 167585225#3 167585225#4 -30392427#0 -30392427#1 142748779#1"/>
    </person>
    <person id="ped13" type="ped_pedestrian" depart="12.77">
        <walk edges="-325004668#1 325004668#0 -166752271#1 -37573547#0 -330930077#0 -330930077#1 -330930077#2 424729655 -167589223#4 -167589223#5 -166753092#3 -167589230#2 -167589230#3 -167589230#4 -167589230#5 -327566305"/>
    </person>
    <person id="ped14" type="ped_pedestrian" depart="13.76">
        <walk edges="526128212 172927507#1 172927507#2 29376004#0 29376004#1 244329796#9 244329796#10 244329796#11 244329796#12 244329796#13 244327259#6 -166753911#0 37555834#5 37555834#4 167589230#6 327566305"/>
    </person>
    <person id="ped15" type="ped_pedestrian" depart="14.74">
        <walk edges="451815503 -167584433#0 167584434#5 167584434#6 167468378#1 167468378#0 167468130 167468377#1 -37555840#3 451543631#0 451543632 451543630#1 37555840#0"/>
    </person>
    <person id="ped16" type="ped_pedestrian" depart="15.72">
        <walk edges="244327259#8 166753912#0 172932752#4 172932752#5 -36907635#10 -36907635#9 -36907635#8 331656505 167456701#0 167456700#2 167456700#1 167456697 167457476#1 167457476#0 167457476#7 167459402#1 167456692#1 167456692#0 734328902#2 734328902#1 167452030#0 167452030#1 167452030#2 734641490#0 734641489"/>
    </person>
    <person id="ped17" type="ped_pedestrian" depart="16.70">
        <walk edges="49406387 -49406379#2 -49406379#4 -49406379#5 -49406379#6 167585225#3 167585225#4 167585225#5 167585225#6 167585225#7 167585225#8 167585225#9 167584711#0 167584434#1 167584434#2 167584434#3 167584434#4 167584434#5 167584434#6 167584434#8 -331667958#8 -331667958#7 330927814"/>
    </person>
    <person id="ped19" type="ped_pedestrian" depart="18.67">
        <walk edges="37555809#4 -331667964#1 37555823#2 37555823#3 37555823#4 167584434#5 167584434#4 167584434#3 167584434#2 167584434#1 167584712 -167585225#9"/>
    </person>
    <person id="ped20" type="ped_pedestrian" depart="19.65">
        <walk edges="-37573566#3 37555809#2 167589223#0 167589223#1 167589223#3 167589223#4 -167589223#5 166753092#2 -37555834#0 -37555834#1 -324985858#2 -37555836#4 -37555836#5 -166754756#1 -166754756#2 -166754756#3 -166754756#5 324991740#0 -589495105"/>
    </person>
    <person id="ped21" type="ped_pedestrian" depart="20.63">
        <walk edges="-324991274 -37555838#1 37555838#2 37555838#3 37555838#4 37555834#5 166753911#1 166753911#2 172932752#5 -36907635#10 -36907635#9 -36907635#8 -36907635#6 -36907635#5 -36907635#4 -378365824#1"/>
    </person>
    <person id="ped22" type="ped_pedestrian" depart="21.62">
        <walk edges="-330925516#0 330925509#1 330925509#2 -320244139#5 -320244139#4 331667958#3 331667958#4 331667958#5 331667958#7 -331667958#8 167584434#8 167584434#6 167584434#5 167584434#4 167584434#3 167584434#2 167584434#1 167584711#0 167585225#9 167585225#8 167585225#7 167585225#6 167585225#5 167585225#4 167585225#3 -49406379#6 -49406379#5 -49406379#4 -49406386"/>
    </person>
    <person id="ped23" type="ped_pedestrian" depart="22.60">
        <walk edges="331667958#1 331667958#2 331667958#3 331667958#4 331667958#5 331667958#7 -331667958#8 167584434#8 167589223#0 167589223#1 167583193#2 -167589230#0 -167589230#1 -167589230#2 -167589230#3 -167589230#4 -167589230#5 -167589230#6 37555834#4 37555834#5 -166753911#0 244327259#6 166800604#0"/>
    </person>
    <person id="ped24" type="ped_pedestrian" depart="23.58">
        <walk edges="166825516#1 166825516#0 244329796#7 244329796#8 244329796#9 244329796#10 244329796#11 244329796#12 244329796#13 244329796#14 324991740#4 -37555841#2 -37555841#3 -37555841#4"/>
    </person>
    <person id="ped25" type="ped_pedestrian" depart="24.56">
        <walk edges="-49406378#0 -49406386 -49406379#4 -49406379#5 -49406379#6 167585225#2 167585225#0 166800604#6 -166800604#5 -37555844 -37555843#0 -37555842#1 166754756#7 166754756#6 166754756#5 589495107#0 589495107#1"/>
    </person>
    <person id="ped26" type="ped_pedestrian" depart="25.55">
        <walk edges="335564504 335564510#1 335564510#0 167461552#0 167461551#1 167461551#0 167461551#5 317891653#3 317891653#2 645851118#3 645851118#2 645851118#1 330925516#2"/>
    </person>
    <person id="ped27" type="ped_pedestrian" depart="26.53">
        <walk edges="-36907635#5 -36907635#6 -36907635#8 -36907635#9 -36907635#10 173008341#5 173008341#4 172932752#15 37555839#1 37555839#2"/>
    </person>
    <person id="ped28" type="ped_pedestrian" depart="27.51">
        <walk edges="-36897741#0 167456700#1 167456700#6 167456691 -36907455 167459400#1 167459399#2 167459399#1 166753092#5 166753092#4 167589230#1 167589230#0 -167583193#2 167589223#1 167589223#0 167584430#6 167584430#5 167584430#4 37555809#5 37555809#6 37555809#7 167186112#2"/>
    </person>
    <person id="ped29" type="ped_pedestrian" depart="28.49">
        <walk edges="758839295 -758839296#1 167585225#6 167585225#5 167585225#4 167585225#3 167585225#2 167585225#0 166800604#6 166800604#5 166800604#4 166800604#3 -37555841#0 -37555841#1 -324991740#4 -166753911#0 166753911#1 166753911#2 172932752#5 -36907635#10 -36907635#9 331667962#0"/>
    </person>
    <person id="ped31" type="ped_pedestrian" depart="30.46">
        <walk edges="-37573567#0 167584430#4 167584430#5 167584430#6 167589223#0 167589223#1 -167583193#2 167589230#0 167589230#1 166753092#4 166753092#5 167459399#1 167459399#2 167459399#3 167457476#5 167457476#6 167457476#7 167458864 167457327#4 167457327#3 167457328 -167457329"/>
    </person>
    <person id="ped32" type="ped_pedestrian" depart="31.44">
        <walk edges="-37555841#6 244329796#17 37555836#5 37555836#4 37555836#3 37555836#2 37555836#1 167589230#3 -324991274 -37555838#0 166753092#5 172932752#15 172932752#16 172932752#17 317891653#0 317891653#1 -645851118#3 -645851118#2 600315611"/>
    </person>
    <person id="ped33" type="ped_pedestrian" depart="32.42">
        <walk edges="335564511 335564510#3 335564508#0 335564507#0 335564507#1 166465027#0 167454053 734328902#8 734328902#7 734328902#6 734328902#5 734328902#4 167458863#5 167458863#4 167458863#3 167458863#2 167456692#2 167456692#3 167457327#6 167456695#0 167456695#1 167456089#6 167456089#5 167456089#4"/>
    </person>
    <person id="ped35" type="ped_pedestrian" depart="34.39">
        <walk edges="-49335078#0 -49335078#1 -49406379#0 -49406379#1 -49406379#2 -49406379#4 -49406379#5 -49406379#6 -167585225#3 -167585225#4 -167585225#5 325004669#1 -325004667#1 325004668#1 325004668#0 -166752271#1 -37573547#0 -330930077#0 -330930077#1 -330930077#2 424729655 -167589223#4 -167589223#5 166753092#3 166753092#4 166753092#5 172932752#15 172932752#16 -451543630#0"/>
    </person>
    <person id="ped36" type="ped_pedestrian" depart="35.37">
        <walk edges="317371668#1 317371668#0 36907635#8 36907635#9 36907635#10 173008341#5 173008341#4 166753092#5 166753092#4 167589230#1 167589230#0 -167583193#2 330930076#1 -330930077#4 37573550#0 167584432#2 167584432#3 -167584433#0 167584433#1 -451815501#2 -451815501#1"/>
    </person>
    <person id="ped38" type="ped_pedestrian" depart="37.34">
        <walk edges="167456090#1 167456091#0 167456089#7 167456695#1 167456695#0 167457327#6 167457327#5 167458864 167457476#7 167457476#6 167457476#5 167459399#3 167459399#2 167459399#1 166753092#5 166753092#4 -167589230#1 -167589230#0 167583193#2 -330930076#1 330930077#4 -37573550#0"/>
    </person>
    <person id="ped39" type="ped_pedestrian" depart="38.32">
        <walk edges="761406514#0 244329796#6 244329796#7 173008338#1 173008341#7 173008341#6 173008341#5 173008341#4 172932752#15"/>
    </person>
    <person id="ped40" type="ped_pedestrian" depart="39.30">
        <walk edges="-325004667#1 325004668#1 325004668#0 -166752271#1 -37573547#0 330930077#0 -37573550#2 -37573550#1 -330930077#4 330930076#1 -167589223#1"/>
    </person>
    <person id="ped41" type="ped_pedestrian" depart="40.28">
        <walk edges="-330926173#1 167468132#0 167468375#0 167468131 167584434#9 167584434#8 167589223#0 -330930016#1 330930076#0 -330930077#4 37573550#1 37573550#2 330930077#1"/>
    </person>
    <person id="ped42" type="ped_pedestrian" depart="41.27">
        <walk edges="451543631#0 -37555840#3 167468377#0 167461554#2 547853428#0 167461554#0 734328902#4 167458863#5 167458863#4 167458863#3 167458863#2 167456692#2 167456692#3 167457327#6 167457327#1 167457327#2"/>
    </person>
    <person id="ped43" type="ped_pedestrian" depart="42.25">
        <walk edges="761196429#1 761196429#0 172932752#13 172932752#12 172932752#11 172932752#10 172932752#9 172932752#8 172932752#7 172932752#6 172932752#5 173008341#7 244327259#11 244327259#12 244327259#13"/>
    </person>
    <person id="ped45" type="ped_pedestrian" depart="44.22">
        <walk edges="-166753911#2 166753911#1 37555834#5 37555834#4 37555834#3 37555836#2"/>
    </person>
    <person id="ped46" type="ped_pedestrian" depart="45.20">
        <walk edges="36907455 741785865 167456700#4 317766697#1 317371669 -36907635#8 -36907635#9 -36907635#10 172932752#5 172932752#4 172932752#3 173008339 244327259#9"/>
    </person>
    <person id="ped47" type="ped_pedestrian" depart="46.18">
        <walk edges="-49406378#0 -49406386 -49406379#4 -49406379#5 -49406379#6 167585225#3 167585225#4 167585225#5 167585225#6 167585225#7 167585225#8 167585225#9 167584711#0 167584434#1 167584434#2 167584434#3 167584434#4 167584434#5 37555823#4 37555823#3 37555823#2 331667964#1"/>
    </person>
    <person id="ped48" type="ped_pedestrian" depart="47.16">
        <walk edges="-330927814 167584430#5 167584430#6 167584434#8 167584434#9 167468131 167468375#0 167468375#1 167461557#0 167461557#1 734328902#5 734328902#4 167458863#5"/>
    </person>
    <person id="ped49" type="ped_pedestrian" depart="48.15">
        <walk edges="167462415#1 167462414 167461551#3 167461555 734328902#6 734328902#5 734328902#4 167458863#5 167458863#4 167458863#3 167458863#2 167458863#0 167457327#4 167457327#3 167457328 167456693 167456694#4 167456694#3 167456694#2 167456088#1 68556150#5 68556150#4 68556150#3 68556150#2"/>
    </person>
    <person id="ped51" type="ped_pedestrian" depart="50.11">
        <walk edges="167589365#0 167589223#5 166753092#3 166753092#4 166753092#5 167459399#1 167459399#2 167459399#3 167457476#5 167457476#6 167457476#7 167458864 167457327#4 167457327#3 167457328 167456693 167456694#5 167456092#0 -68556150#5 -68556150#4 -68556150#3 36907637#6 -36907637#6"/>
    </person>
    <person id="ped53" type="ped_pedestrian" depart="52.08">
        <walk edges="330925516#2 645851118#1 645851118#2 645851118#3 317891653#2 317891653#3 167461551#5 167461551#0 167461551#1 167461552#0 -335564510#0 -335564510#1 -335564510#3 -335564505 -335564503 -335564509 166465027#4 166465027#5 166465027#6 166465027#7 -335743402"/>
    </person>
    <person id="ped54" type="ped_pedestrian" depart="53.06">
        <walk edges="378365889 -36907635#2 -36907635#4 -36907635#5 -36907635#6 -36907635#8 -36907635#9 -36907635#10 172932752#5 172932752#4 172932752#3 172932752#2 172932752#1 244329796#9 244329796#10"/>
    </person>
    <person id="ped55" type="ped_pedestrian" depart="54.04">
        <walk edges="413863729#0 413825343#0 413825343#1 413825343#6 413861734 167462415#3 167462409 173008341#1 173008341#4 173008341#5 173008341#6 173008341#7 244327259#11 244327259#12 244327259#13 244327259#14"/>
    </person>
    <person id="ped56" type="ped_pedestrian" depart="55.02">
        <walk edges="-142748414 30392427#0 167585225#4 167585225#3 167585225#2 167585225#0 166800604#6 166800604#5 166800604#4 166800604#3 166800604#2 -734644053#0 -734644053#1 -734350787#1 -734350790#0 -734350788 244329796#11 244329796#10 244329796#9 244329796#8 173008338#1 244327259#11 244327259#12 244327259#13 244327259#14 166835325#1 166835330#0 -757116822"/>
    </person>
    <person id="ped59" type="ped_pedestrian" depart="57.97">
        <walk edges="-734350787#0 166800604#0 244329796#14 244329796#15 244327259#4 244327259#3 244327259#2 244327259#1 166754757 166753093#0 166753090#3 166753090#2 -167589753"/>
    </person>
    <person id="ped60" type="ped_pedestrian" depart="58.95">
        <walk edges="-324991740#2 -324991740#3 37555841#1 37555841#0 -166800604#3 166800604#4 166800604#5 166800604#6 167585225#0 167585225#2 167585225#3"/>
    </person>
    <person id="ped61" type="ped_pedestrian" depart="59.94">
        <walk edges="-320244139#2 -320244139#4 -320244139#5 -320244139#6 -320244139#7 -320244139#8 -320244139#9 -320244139#11 -320244139#12 -320244139#13 -645851118#3 317891653#2 317891653#3 167461551#4 167461551#3 167461555 734328902#6 734328902#5 734328902#4 167458863#5 167458863#4 167458863#3 167458863#2 167458863#0 167457327#4 167457327#3 167457328 167456693 167456694#4 167456694#3 331667211#1 331667211#0 -36907357#1 378365825#0 378365827"/>
    </person>
    <person id="ped62" type="ped_pedestrian" depart="60.92">
        <walk edges="413825343#0 413825343#1 413825343#6 413861734 -645851118#3 -320244139#13 -320244139#12 -320244139#11 -320244139#9 -320244139#8 -320244139#7 -320244139#6 -320244139#5 -320244139#4 331667958#3 -331667958#4"/>
    </person>
    <person id="ped63" type="ped_pedestrian" depart="61.90">
        <walk edges="167584433#2 -167584433#1 -167584433#0 167584432#3 167584432#2 -37573550#0 -37573550#1 -37573550#2 -330930077#1 -330930077#2 424729655 -167589223#4 -167589223#5 166753092#2 -37555834#0 -37555834#1 -37555834#2 -37555834#3 -37555834#4 -37555834#5 -166753911#0 244327259#6 244329796#13 244329796#12 244329796#11 244329796#10 244329796#9"/>
    </person>
    <person id="ped65" type="ped_pedestrian" depart="63.87">
        <walk edges="167457327#4 167458864 167457476#7 167457476#6 167457476#5 167459399#3 167459399#2 167459399#1 166753092#5 -37555838#0 -324991274 167589230#3 -37555836#1 -37555836#2 -37555836#3 -37555836#4 -37555836#5 -166754756#1 -166754756#2 -166754756#3 -166754756#5 -166754756#6 166754756#7 -37555842#1 -37555842#0"/>
    </person>
    <person id="ped66" type="ped_pedestrian" depart="64.85">
        <walk edges="244329796#10 244329796#9 172932752#1 172932752#2 172932752#3 172932752#4 172932752#5 172932752#6 172932752#7 172932752#8 172932752#9 172932752#10 172932752#11 172932752#12 172932752#13 172932752#14 172932752#15 37555839#1 37555840#0 37555840#1"/>
    </person>
    <person id="ped67" type="ped_pedestrian" depart="65.83">
        <walk edges="-37555838#3 37555838#4 37555834#5 -166753911#0 244327259#6 244329796#13 244329796#12 -734350788 -734350790#0 -734350790#2"/>
    </person>
    <person id="ped68" type="ped_pedestrian" depart="66.81">
        <walk edges="761196428 173008341#4 173008341#1 167462409 167461557#0 167461557#1 734328902#6 734328902#7 734328902#8 167454053 166465027#0 335564507#1 335564507#0"/>
    </person>
    <person id="ped69" type="ped_pedestrian" depart="67.80">
        <walk edges="167459399#3 167459399#2 167459399#1 173008341#4 173008341#5 173008341#6 173008341#7 173008338#1 173008338#2"/>
    </person>
    <person id="ped70" type="ped_pedestrian" depart="68.78">
        <walk edges="-330930077#1 -37573550#2 -37573550#1 -37573550#0 167584432#2 167584432#3 -167584433#0 -167584433#1 -167584433#2 37573566#0 37573561#1 -37573561#2 -37573561#3 -37573561#4"/>
    </person>
    <person id="ped71" type="ped_pedestrian" depart="69.76">
        <walk edges="166465027#0 167454053 734328902#8 734328902#7 734328902#6 167461557#1 167461557#0 167462409 173008341#1 166753092#5 -37555838#0 -324991274 167589230#3 37555836#1 37555836#2 37555836#3 37555836#4 37555836#5 166754756#1 166754756#2 324991562#2 -589495107#1 589495106#0 -589495106#1 -589495101 324991740#3"/>
    </person>
    <person id="ped72" type="ped_pedestrian" depart="70.74">
        <walk edges="-378365819 -185804937#0 36907635#2 36907635#4 -36907635#5 -36907635#6 -36907635#8 -36907635#9 -36907635#10 173008341#5 173008341#4 166753092#5 166753092#4 166753092#3 -167589223#5 -167589223#4 424729655 -330930077#2 -330930077#1 -37573550#2 -37573550#1"/>
    </person>
    <person id="ped73" type="ped_pedestrian" depart="71.73">
        <walk edges="-320244139#6 -320244139#5 -320244139#4 331667958#3 331667958#4 331667958#5 331667958#7 -331667958#8 167584434#8 167584434#6 167584434#5 167584432#4 330930084#0 330930084#1"/>
    </person>
    <person id="ped75" type="ped_pedestrian" depart="73.69">
        <walk edges="-378365889 378365889 -36907635#2 -36907635#4 -36907635#5 331667211#0 331667211#1 167456694#3 167456694#4 167456693 167457328 167457327#3 167457327#4 167458863#0 167456692#1 167456692#0 734328902#2 734328902#1 734328902#0 37358087#7 358333263#0 358333381#0 358333381#1"/>
    </person>
    <person id="ped76" type="ped_pedestrian" depart="74.67">
        <walk edges="-37555843#1 -166800604#4 -166800604#5 -166800604#6 -167585225#0 -167585225#2 -167585225#3 -167585225#4 -167585225#5 -167585225#6 -167585225#7 -167585225#8 -167585225#9 167584712 167584434#1 167584434#2 167584434#3 167584434#4 -167584433#0 -167584433#1 -167584433#2 37573566#0 37573566#1 599812416#0 599812416#1 -331667964#2"/>
    </person>
    <person id="ped77" type="ped_pedestrian" depart="75.66">
        <walk edges="589495106#1 589495106#0 -589495107#1 324991562#2 166754756#2 166754756#1 37555836#5 37555836#4 37555836#3 37555836#2 37555836#1 167589230#3 -324991274 -37555838#0 166753092#5 172932752#15 172932752#16 172932752#17 317891653#0 330926044 320244139#13"/>
    </person>
    <person id="ped78" type="ped_pedestrian" depart="76.64">
        <walk edges="167584432#3 167584432#2 167584432#1 167584432#0 167584434#8 167584434#9 167468131 167468375#0 167468375#1 167461557#0 167461557#1 734328902#6 734328902#7 734328902#8 167454053 166465027#0 166465027#1 166465027#2 166465027#3 166465027#4 -335566452#2 -335566452#1 447096918"/>
    </person>
    <person id="ped79" type="ped_pedestrian" depart="77.62">
        <walk edges="49335076 49406373#2 49406373#1 49406373#0 49335077 -49406382#5 -49406382#4 -49406382#3 49406393 -167585225#4 -167585225#5 325004669#1 -325004667#1 325004668#1 325004668#0 -166752271#1 -37573547#0 -330930077#0 -330930077#1 -330930077#2 424729655 -167589223#4 -167589223#5 166753092#2 -37555834#0 -37555834#1"/>
    </person>
    <person id="ped80" type="ped_pedestrian" depart="78.60">
        <walk edges="-327566305 37555838#3 37555838#2 37555838#1 37555838#0 166753092#5 167459399#1 167459399#2 167459399#3 167457476#5 167457476#6 167457476#7"/>
    </person>
    <person id="ped81" type="ped_pedestrian" depart="79.59">
        <walk edges="167457327#4 167458863#0 167458863#2 167458863#3 167458863#4 167458863#5 734328902#4 734328902#5 734328902#6 167461555 167461551#3 167461551#4 317891653#3 317891653#2 -645851118#3 -320244139#13 -320244139#12 -320244139#11 -320244139#9 -320244139#8 -320244139#7 -320244139#6 -320244139#5 -320244139#4 -320244139#2 -320244139#1 167584430#2"/>
    </person>
    <person id="ped82" type="ped_pedestrian" depart="80.57">
        <walk edges="37555839#2 -37555840#0 451543630#1 451543630#0 172932752#17 167461554#2 547853428#0 167461554#0 734328902#4 734328902#3 734328902#2 734328902#1 167452030#0 167452030#1 36877668#0 36877668#1 36877668#2 36877668#3"/>
    </person>
    <person id="ped83" type="ped_pedestrian" depart="81.55">
        <walk edges="167456093 167456089#2 167456089#1 167456089#0 167456089#7 167456695#1 167456695#0 167457327#6 167456692#3 167456692#2 167458863#2 167458863#3 167458863#4 167458863#5 734328902#4 734328902#5 734328902#6 734328902#7 734328902#8 167454053 166465027#0 166465027#1"/>
    </person>
    <person id="ped85" type="ped_pedestrian" depart="83.52">
        <walk edges="-37555834#1 -324985858#1 -324985858#0 324991274 -37555838#0 166753092#5 173008341#1 167462409 167461554#2 547853428#0 167461554#0"/>
    </person>
    <person id="ped86" type="ped_pedestrian" depart="84.50">
        <walk edges="167457327#2 167457327#3 167457327#4 167458864 167457476#7 167457476#6 167457476#5 167459399#3 167459399#2 167459399#1 166753092#5 166753092#4 166753092#3 -167589223#5 -167589223#4 424729655 -330930077#2 -330930077#1 -330930077#0 -37573547#0 -166752271#1 325004668#0 325004668#1 -325004667#1 325004669#1 -167585225#5 -167585225#4 -167585225#3 -49406379#6 -49406379#5 -49406379#4 -49406379#2 -49406387"/>
    </person>
    <person id="ped87" type="ped_pedestrian" depart="85.48">
        <walk edges="-451543631#1 -37555840#1 -37555840#0 -37555839#1 173008341#1 167459399#1 167459399#2 167459399#3 167457476#5 167457476#6 167457476#7 167458864 167457327#4 167457327#3 167457328 167456693 167456694#4 167456694#3 167456694#2 167456088#1 68556150#5 68556150#4 541908543"/>
    </person>
    <person id="ped88" type="ped_pedestrian" depart="86.46">
        <walk edges="257711537 -167589223#4 -167589223#5 166753092#3 -167589230#1"/>
    </person>
    <person id="ped89" type="ped_pedestrian" depart="87.45">
        <walk edges="761406514#2 -761406514#0 244329796#6 244329796#7 244329796#8 29376004#1 29376004#0 172927507#2 526128853 526126945 548280150#0 525615153#0"/>
    </person>
    <person id="ped92" type="ped_pedestrian" depart="90.40">
        <walk edges="167585225#3 167585225#2 167585225#0 166800604#6 -166800604#5 -37555844 -37555843#0"/>
    </person>
    <person id="ped93" type="ped_pedestrian" depart="91.38">
        <walk edges="167456092#0 167456694#5 167456694#4 167456694#3 331667211#1 331667211#0 -36907635#6 -36907635#8 -36907635#9 -36907635#10 172932752#5 172932752#4 172932752#3 172932752#2 172932752#1 244329796#9 -173008610"/>
    </person>
    <person id="ped94" type="ped_pedestrian" depart="92.36">
        <walk edges="167462465 167461551#1 167461551#2 167461555 734328902#6 734328902#5 734328902#4 167458863#5 167458863#4 167458863#3 167458863#2 167458863#0 167457327#4 167457327#3"/>
    </person>
    <person id="ped95" type="ped_pedestrian" depart="93.34">
        <walk edges="697465542#1 697465542#0 525615298#4 -612152027 525615153#2 525615153#1 697465543#1 697465543#0 526128853 172927507#2 29376004#0 29376004#1 172932752#1 172932752#2 172932752#3 172932752#4 172932752#5 172932752#6 172932752#7 172932752#8 172932752#9 172932752#10 172932752#11 172932752#12 172932752#13 761196429#0"/>
    </person>
    <person id="ped96" type="ped_pedestrian" depart="94.33">
        <walk edges="30392427#2 142748779#1 142748779#2 -325004666#1 -325004666#0 -325004668#0 -166752271#1 -37573547#0 -330930077#0 -330930077#1 -330930077#2 424729655 -167589223#4 -167589223#5 -166753092#2 37555834#0 37555834#1 37555834#2 37555834#3 37555834#4 37555834#5"/>
    </person>
    <person id="ped97" type="ped_pedestrian" depart="95.31">
        <walk edges="-346884802 -37573561#4 -37573561#5 -37555807#2 37555807#3 37555807#4 37555807#5 37555809#6 320244139#1 -320244139#2 -320244139#4 -320244139#5 -320244139#6 320244139#7 320244139#8 320244139#9 320244139#11 320244139#12 -600315611"/>
    </person>
    <person id="ped98" type="ped_pedestrian" depart="96.29">
        <walk edges="734350789 244329796#11 244329796#12 244329796#13 244327259#6 -166753911#0 37555834#5 37555834#4 -167589230#6 -167589230#5 -167589230#4 -167589230#3 324985858#0"/>
    </person>
    <person id="ped99" type="ped_pedestrian" depart="97.27">
        <walk edges="244329796#14 -166753911#0 37555834#5 37555834#4 -167589230#6 -167589230#5 -167589230#4 -167589230#3 -167589230#2 -167589230#1 -167589230#0 167583193#2 167589223#1 167589223#0 37555809#2 37573566#3 -37555823#3 -330929812#1 -330929812#0 37573561#2"/>
    </person>
    <person id="ped100" type="ped_pedestrian" depart="98.26">
        <walk edges="-167589365#1 167583193#1 167589230#0 -167589230#1 -167589230#2 -167589230#3 37555836#1 37555836#2 37555836#3 37555836#4 37555836#5 166754756#1 166754756#2 324991562#2"/>
    </person>
    <person id="ped102" type="ped_pedestrian" depart="100.22">
        <walk edges="-358333379#1 36877668#0 167452030#1 167452030#0 734328902#1 734328902#2"/>
    </person>
    <person id="ped103" type="ped_pedestrian" depart="101.20">
        <walk edges="-324991274 167589230#2 167589230#1 167589230#0 -167583193#2 167589223#1 167589223#0 167584434#6 -37555823#4"/>
    </person>
    <person id="ped104" type="ped_pedestrian" depart="102.19">
        <walk edges="-378365827 -36907635#5 -36907635#6 -36907635#8 -36907635#9 -36907635#10 173008341#5 173008341#4 166753092#5 166753092#4 166753092#3 -167589223#5 -167589223#4 424729655 -330930077#2 -330930077#1 -330930077#0"/>
    </person>
    <person id="ped106" type="ped_pedestrian" depart="104.15">
        <walk edges="325004668#1 325004668#0 -166752271#1 -37573547#0 -37573547#1 167584432#2 167584432#1 167584432#0 37555809#2 37555809#3 37555809#4 167584430#3 330927815"/>
    </person>
    <person id="ped107" type="ped_pedestrian" depart="105.13">