<additional xmlns:xsi="http://www.w3.org/2001/XMLSchema-instance" xsi:noNamespaceSchemaLocation="http://sumo.dlr.de/xsd/additional_file.xsd">
    <laneAreaDetector file="e2output.xml" freq="60" friendlyPos="x" id="e2detLoop_-166753092#4_1" lane="-166753092#4_1" length="10" pos="56.32"/>
    <laneAreaDetector file="e2output.xml" freq="60" friendlyPos="x" id="e2detLoop_-166753092#4_2" lane="-166753092#4_2" length="10" pos="56.32"/>
    <laneAreaDetector file="e2output.xml" freq="60" friendlyPos="x" id="e2detLoop_-167589230#2_1" lane="-167589230#2_1" length="10" pos="62.169999999999995"/>
    <laneAreaDetector file="e2output.xml" freq="60" friendlyPos="x" id="e2detLoop_166753092#3_1" lane="166753092#3_1" length="10" pos="74.0"/>
    <laneAreaDetector file="e2output.xml" freq="60" friendlyPos="x" id="e2detLoop_166753092#3_2" lane="166753092#3_2" length="10" pos="74.0"/>
    <laneAreaDetector file="e2output.xml" freq="60" friendlyPos="x" id="e2detLoop_167589230#1_1" lane="167589230#1_1" length="10" pos="43.57"/>
    <laneAreaDetector file="e2output.xml" freq="60" friendlyPos="x" id="e2detLoop_-166753911#0_1" lane="-166753911#0_1" length="10" pos="44.99"/>
    <laneAreaDetector file="e2output.xml" freq="60" friendlyPos="x" id="e2detLoop_244327259#5_1" lane="244327259#5_1" length="10" pos="142.06"/>
    <laneAreaDetector file="e2output.xml" freq="60" friendlyPos="x" id="e2detLoop_244327259#5_2" lane="244327259#5_2" length="10" pos="142.06"/>
    <laneAreaDetector file="e2output.xml" freq="60" friendlyPos="x" id="e2detLoop_244329796#14_1" lane="244329796#14_1" length="10" pos="99.89"/>
    <laneAreaDetector file="e2output.xml" freq="60" friendlyPos="x" id="e2detLoop_244329796#14_2" lane="244329796#14_2" length="10" pos="99.89"/>
    <laneAreaDetector file="e2output.xml" freq="60" friendlyPos="x" id="e2detLoop_324991740#4_1" lane="324991740#4_1" length="10" pos="223.13"/>
    <laneAreaDetector file="e2output.xml" freq="60" friendlyPos="x" id="e2detLoop_-167186112#1_1" lane="-167186112#1_1" length="10" pos="25.729999999999997"/>
    <laneAreaDetector file="e2output.xml" freq="60" friendlyPos="x" id="e2detLoop_-37555829#1_1" lane="-37555829#1_1" length="10" pos="145.49"/>
    <laneAreaDetector file="e2output.xml" freq="60" friendlyPos="x" id="e2detLoop_167186112#0_1" lane="167186112#0_1" length="10" pos="71.7"/>
    <laneAreaDetector file="e2output.xml" freq="60" friendlyPos="x" id="e2detLoop_37555829#0_1" lane="37555829#0_1" length="10" pos="625.49"/>
    <laneAreaDetector file="e2output.xml" freq="60" friendlyPos="x" id="e2detLoop_-167186112#4_1" lane="-167186112#4_1" length="10" pos="63.279999999999994"/>
    <laneAreaDetector file="e2output.xml" freq="60" friendlyPos="x" id="e2detLoop_167186112#2_1" lane="167186112#2_1" length="10" pos="100.83000000000001"/>
    <laneAreaDetector file="e2output.xml" freq="60" friendlyPos="x" id="e2detLoop_167584430#0_1" lane="167584430#0_1" length="10" pos="582.4"/>
    <laneAreaDetector file="e2output.xml" freq="60" friendlyPos="x" id="e2detLoop_37555809#7_1" lane="37555809#7_1" length="10" pos="79.51"/>
    <laneAreaDetector file="e2output.xml" freq="60" friendlyPos="x" id="e2detLoop_-167456093_1" lane="-167456093_1" length="10" pos="456.26"/>
    <laneAreaDetector file="e2output.xml" freq="60" friendlyPos="x" id="e2detLoop_-167456093_2" lane="-167456093_2" length="10" pos="456.26"/>
    <laneAreaDetector file="e2output.xml" freq="60" friendlyPos="x" id="e2detLoop_167456090#1_1" lane="167456090#1_1" length="10" pos="113.76"/>
    <laneAreaDetector file="e2output.xml" freq="60" friendlyPos="x" id="e2detLoop_167456090#1_2" lane="167456090#1_2" length="10" pos="113.76"/>
    <laneAreaDetector file="e2output.xml" freq="60" friendlyPos="x" id="e2detLoop_167456092#1_1" lane="167456092#1_1" length="10" pos="109.07000000000001"/>
    <laneAreaDetector file="e2output.xml" freq="60" friendlyPos="x" id="e2detLoop_167456092#1_2" lane="167456092#1_2" length="10" pos="109.07000000000001"/>
    <laneAreaDetector file="e2output.xml" freq="60" friendlyPos="x" id="e2detLoop_167456695#1_1" lane="167456695#1_1" length="10" pos="99.51"/>
    <laneAreaDetector file="e2output.xml" freq="60" friendlyPos="x" id="e2detLoop_167456695#1_2" lane="167456695#1_2" length="10" pos="99.51"/>
    <laneAreaDetector file="e2output.xml" freq="60" friendlyPos="x" id="e2detLoop_167456695#1_3" lane="167456695#1_3" length="10" pos="99.51"/>
    <laneAreaDetector file="e2output.xml" freq="60" friendlyPos="x" id="e2detLoop_167456695#1_4" lane="167456695#1_4" length="10" pos="99.51"/>
    <laneAreaDetector file="e2output.xml" freq="60" friendlyPos="x" id="e2detLoop_-167457329_1" lane="-167457329_1" length="10" pos="263.75"/>
    <laneAreaDetector file="e2output.xml" freq="60" friendlyPos="x" id="e2detLoop_-167457329_2" lane="-167457329_2" length="10" pos="263.75"/>
    <laneAreaDetector file="e2output.xml" freq="60" friendlyPos="x" id="e2detLoop_167456088#1_1" lane="167456088#1_1" length="10" pos="111.13000000000001"/>
    <laneAreaDetector file="e2output.xml" freq="60" friendlyPos="x" id="e2detLoop_167456088#1_2" lane="167456088#1_2" length="10" pos="111.13000000000001"/>
    <laneAreaDetector file="e2output.xml" freq="60" friendlyPos="x" id="e2detLoop_331667211#1_1" lane="331667211#1_1" length="10" pos="179.09"/>
    <laneAreaDetector file="e2output.xml" freq="60" friendlyPos="x" id="e2detLoop_36897741#1_1" lane="36897741#1_1" length="10" pos="231.49"/>
    <laneAreaDetector file="e2output.xml" freq="60" friendlyPos="x" id="e2detLoop_-167584433#0_1" lane="-167584433#0_1" length="10" pos="84.14"/>
    <laneAreaDetector file="e2output.xml" freq="60" friendlyPos="x" id="e2detLoop_166751738#1_1" lane="166751738#1_1" length="10" pos="119.57"/>
    <laneAreaDetector file="e2output.xml" freq="60" friendlyPos="x" id="e2detLoop_167584432#3_1" lane="167584432#3_1" length="10" pos="59.24999999999999"/>
    <laneAreaDetector file="e2output.xml" freq="60" friendlyPos="x" id="e2detLoop_167584432#3_2" lane="167584432#3_2" length="10" pos="59.24999999999999"/>
    <laneAreaDetector file="e2output.xml" freq="60" friendlyPos="x" id="e2detLoop_167584434#4_1" lane="167584434#4_1" length="10" pos="20.81"/>
    <laneAreaDetector file="e2output.xml" freq="60" friendlyPos="x" id="e2detLoop_167584434#4_2" lane="167584434#4_2" length="10" pos="20.81"/>
    <laneAreaDetector file="e2output.xml" freq="60" friendlyPos="x" id="e2detLoop_-167585225#2_1" lane="-167585225#2_1" length="10" pos="4.1"/>
    <laneAreaDetector file="e2output.xml" freq="60" friendlyPos="x" id="e2detLoop_-167585225#2_2" lane="-167585225#2_2" length="10" pos="4.1"/>
    <laneAreaDetector file="e2output.xml" freq="60" friendlyPos="x" id="e2detLoop_166753096#5_0" lane="166753096#5_0" length="10" pos="67.89"/>
    <laneAreaDetector file="e2output.xml" freq="60" friendlyPos="x" id="e2detLoop_166753096#5_1" lane="166753096#5_1" length="10" pos="67.89"/>
    <laneAreaDetector file="e2output.xml" freq="60" friendlyPos="x" id="e2detLoop_167585225#0_1" lane="167585225#0_1" length="10" pos="14.74"/>
    <laneAreaDetector file="e2output.xml" freq="60" friendlyPos="x" id="e2detLoop_167585225#0_2" lane="167585225#0_2" length="10" pos="14.74"/>
    <laneAreaDetector file="e2output.xml" freq="60" friendlyPos="x" id="e2detLoop_29375467#1_0" lane="29375467#1_0" length="10" pos="809.04"/>
    <laneAreaDetector file="e2output.xml" freq="60" friendlyPos="x" id="e2detLoop_29375467#1_1" lane="29375467#1_1" length="10" pos="809.04"/>
    <laneAreaDetector file="e2output.xml" freq="60" friendlyPos="x" id="e2detLoop_-167589223#0_1" lane="-167589223#0_1" length="10" pos="29.740000000000002"/>
    <laneAreaDetector file="e2output.xml" freq="60" friendlyPos="x" id="e2detLoop_167468378#1_1" lane="167468378#1_1" length="10" pos="3.7399999999999998"/>
    <laneAreaDetector file="e2output.xml" freq="60" friendlyPos="x" id="e2detLoop_167468378#1_2" lane="167468378#1_2" length="10" pos="3.7399999999999998"/>
    <laneAreaDetector file="e2output.xml" freq="60" friendlyPos="x" id="e2detLoop_167584430#6_1" lane="167584430#6_1" length="10" pos="221.43"/>
    <laneAreaDetector file="e2output.xml" freq="60" friendlyPos="x" id="e2detLoop_167584434#6_1" lane="167584434#6_1" length="10" pos="21.4"/>
    <laneAreaDetector file="e2output.xml" freq="60" friendlyPos="x" id="e2detLoop_167584434#6_2" lane="167584434#6_2" length="10" pos="21.4"/>
    <laneAreaDetector file="e2output.xml" freq="60" friendlyPos="x" id="e2detLoop_-167589223#3_1" lane="-167589223#3_1" length="10" pos="112.96000000000001"/>
    <laneAreaDetector file="e2output.xml" freq="60" friendlyPos="x" id="e2detLoop_167583193#2_1" lane="167583193#2_1" length="10" pos="19.549999999999997"/>
    <laneAreaDetector file="e2output.xml" freq="60" friendlyPos="x" id="e2detLoop_167589223#1_1" lane="167589223#1_1" length="10" pos="103.34"/>
    <laneAreaDetector file="e2output.xml" freq="60" friendlyPos="x" id="e2detLoop_330930076#1_1" lane="330930076#1_1" length="10" pos="35.98"/>
    <laneAreaDetector file="e2output.xml" freq="60" friendlyPos="x" id="e2detLoop_-320244139#11_1" lane="-320244139#11_1" length="10" pos="72.61"/>
    <laneAreaDetector file="e2output.xml" freq="60" friendlyPos="x" id="e2detLoop_167468132#3_1" lane="167468132#3_1" length="10" pos="79.23"/>
    <laneAreaDetector file="e2output.xml" freq="60" friendlyPos="x" id="e2detLoop_320244139#9_1" lane="320244139#9_1" length="10" pos="34.14"/>
    <laneAreaDetector file="e2output.xml" freq="60" friendlyPos="x" id="e2detLoop_330925771#2_1" lane="330925771#2_1" length="10" pos="87.9"/>
    <laneAreaDetector file="e2output.xml" freq="60" friendlyPos="x" id="e2detLoop_-320244139#4_1" lane="-320244139#4_1" length="10" pos="168.51000000000002"/>
    <laneAreaDetector file="e2output.xml" freq="60" friendlyPos="x" id="e2detLoop_-331667958#3_1" lane="-331667958#3_1" length="10" pos="15.450000000000001"/>
    <laneAreaDetector file="e2output.xml" freq="60" friendlyPos="x" id="e2detLoop_320244139#2_1" lane="320244139#2_1" length="10" pos="65.39"/>
    <laneAreaDetector file="e2output.xml" freq="60" friendlyPos="x" id="e2detLoop_331667958#2_1" lane="331667958#2_1" length="10" pos="70.38000000000001"/>
    <laneAreaDetector file="e2output.xml" freq="60" friendlyPos="x" id="e2detLoop_-331667211#0_1" lane="-331667211#0_1" length="10" pos="184.04"/>
    <laneAreaDetector file="e2output.xml" freq="60" friendlyPos="x" id="e2detLoop_-36907635#6_1" lane="-36907635#6_1" length="10" pos="250.42"/>
    <laneAreaDetector file="e2output.xml" freq="60" friendlyPos="x" id="e2detLoop_36907357#1_1" lane="36907357#1_1" length="10" pos="76.73"/>
    <laneAreaDetector file="e2output.xml" freq="60" friendlyPos="x" id="e2detLoop_36907635#5_1" lane="36907635#5_1" length="10" pos="65.29"/>
    <laneAreaDetector file="e2output.xml" freq="60" friendlyPos="x" id="e2detLoop_-331667958#8_1" lane="-331667958#8_1" length="10" pos="302.47999999999996"/>
    <laneAreaDetector file="e2output.xml" freq="60" friendlyPos="x" id="e2detLoop_-37571582#1_1" lane="-37571582#1_1" length="10" pos="137.1"/>
    <laneAreaDetector file="e2output.xml" freq="60" friendlyPos="x" id="e2detLoop_331667958#7_1" lane="331667958#7_1" length="10" pos="49.65"/>
    <laneAreaDetector file="e2output.xml" freq="60" friendlyPos="x" id="e2detLoop_37571582#0_1" lane="37571582#0_1" length="10" pos="129.82"/>
    <laneAreaDetector file="e2output.xml" freq="60" friendlyPos="x" id="e2detLoop_-331667964#2_1" lane="-331667964#2_1" length="10" pos="51.51"/>
    <laneAreaDetector file="e2output.xml" freq="60" friendlyPos="x" id="e2detLoop_-37555823#2_1" lane="-37555823#2_1" length="10" pos="47.839999999999996"/>
    <laneAreaDetector file="e2output.xml" freq="60" friendlyPos="x" id="e2detLoop_331667964#1_1" lane="331667964#1_1" length="10" pos="8.4"/>
    <laneAreaDetector file="e2output.xml" freq="60" friendlyPos="x" id="e2detLoop_37555823#1_1" lane="37555823#1_1" length="10" pos="108.21000000000001"/>
    <laneAreaDetector file="e2output.xml" freq="60" friendlyPos="x" id="e2detLoop_-331667964#4_1" lane="-331667964#4_1" length="10" pos="36.01"/>
    <laneAreaDetector file="e2output.xml" freq="60" friendlyPos="x" id="e2detLoop_-37573561#3_1" lane="-37573561#3_1" length="10" pos="33.08"/>
    <laneAreaDetector file="e2output.xml" freq="60" friendlyPos="x" id="e2detLoop_331667964#3_1" lane="331667964#3_1" length="10" pos="59.38"/>
    <laneAreaDetector file="e2output.xml" freq="60" friendlyPos="x" id="e2detLoop_37573561#2_1" lane="37573561#2_1" length="10" pos="37.47"/>
    <laneAreaDetector file="e2output.xml" freq="60" friendlyPos="x" id="e2detLoop_-335563875#0_1" lane="-335563875#0_1" length="10" pos="136.8"/>
    <laneAreaDetector file="e2output.xml" freq="60" friendlyPos="x" id="e2detLoop_-336337248_1" lane="-336337248_1" length="10" pos="257.77"/>
    <laneAreaDetector file="e2output.xml" freq="60" friendlyPos="x" id="e2detLoop_167462414_1" lane="167462414_1" length="10" pos="41.15"/>
    <laneAreaDetector file="e2output.xml" freq="60" friendlyPos="x" id="e2detLoop_167462414_2" lane="167462414_2" length="10" pos="41.15"/>
    <laneAreaDetector file="e2output.xml" freq="60" friendlyPos="x" id="e2detLoop_317891653#2_1" lane="317891653#2_1" length="10" pos="42.57"/>
    <laneAreaDetector file="e2output.xml" freq="60" friendlyPos="x" id="e2detLoop_317891653#2_2" lane="317891653#2_2" length="10" pos="42.57"/>
    <laneAreaDetector file="e2output.xml" freq="60" friendlyPos="x" id="e2detLoop_-361576970_1" lane="-361576970_1" length="10" pos="179.67000000000002"/>
    <laneAreaDetector file="e2output.xml" freq="60" friendlyPos="x" id="e2detLoop_-36907637#2_1" lane="-36907637#2_1" length="10" pos="75.83000000000001"/>
    <laneAreaDetector file="e2output.xml" freq="60" friendlyPos="x" id="e2detLoop_331667211#0_1" lane="331667211#0_1" length="10" pos="184.24"/>
    <laneAreaDetector file="e2output.xml" freq="60" friendlyPos="x" id="e2detLoop_36907637#1_1" lane="36907637#1_1" length="10" pos="77.48"/>
    <laneAreaDetector file="e2output.xml" freq="60" friendlyPos="x" id="e2detLoop_-36897741#0_1" lane="-36897741#0_1" length="10" pos="50.79"/>
    <laneAreaDetector file="e2output.xml" freq="60" friendlyPos="x" id="e2detLoop_167456691_1" lane="167456691_1" length="10" pos="32.589999999999996"/>
    <laneAreaDetector file="e2output.xml" freq="60" friendlyPos="x" id="e2detLoop_167456697_1" lane="167456697_1" length="10" pos="296.44"/>
    <laneAreaDetector file="e2output.xml" freq="60" friendlyPos="x" id="e2detLoop_167456697_2" lane="167456697_2" length="10" pos="296.44"/>
    <laneAreaDetector file="e2output.xml" freq="60" friendlyPos="x" id="e2detLoop_317766697#1_1" lane="317766697#1_1" length="10" pos="161.47"/>
    <laneAreaDetector file="e2output.xml" freq="60" friendlyPos="x" id="e2detLoop_317766697#1_2" lane="317766697#1_2" length="10" pos="161.47"/>
    <laneAreaDetector file="e2output.xml" freq="60" friendlyPos="x" id="e2detLoop_-36907635#8_1" lane="-36907635#8_1" length="10" pos="38.01"/>
    <laneAreaDetector file="e2output.xml" freq="60" friendlyPos="x" id="e2detLoop_317371668#2_1" lane="317371668#2_1" length="10" pos="49.559999999999995"/>
    <laneAreaDetector file="e2output.xml" freq="60" friendlyPos="x" id="e2detLoop_331656505_1" lane="331656505_1" length="10" pos="204.17000000000002"/>
    <laneAreaDetector file="e2output.xml" freq="60" friendlyPos="x" id="e2detLoop_36907635#6_1" lane="36907635#6_1" length="10" pos="250.25000000000003"/>
    <laneAreaDetector file="e2output.xml" freq="60" friendlyPos="x" id="e2detLoop_-37555834#3_1" lane="-37555834#3_1" length="10" pos="258.57"/>
    <laneAreaDetector file="e2output.xml" freq="60" friendlyPos="x" id="e2detLoop_-37555836#3_1" lane="-37555836#3_1" length="10" pos="9.81"/>
    <laneAreaDetector file="e2output.xml" freq="60" friendlyPos="x" id="e2detLoop_37555834#2_1" lane="37555834#2_1" length="10" pos="86.29"/>
    <laneAreaDetector file="e2output.xml" freq="60" friendlyPos="x" id="e2detLoop_37555836#2_1" lane="37555836#2_1" length="10" pos="46.87"/>
    <laneAreaDetector file="e2output.xml" freq="60" friendlyPos="x" id="e2detLoop_-757229692_1" lane="-757229692_1" length="10" pos="423.09999999999997"/>
    <laneAreaDetector file="e2output.xml" freq="60" friendlyPos="x" id="e2detLoop_167456692#0_1" lane="167456692#0_1" length="10" pos="215.92000000000002"/>
    <laneAreaDetector file="e2output.xml" freq="60" friendlyPos="x" id="e2detLoop_167456692#0_2" lane="167456692#0_2" length="10" pos="215.92000000000002"/>
    <laneAreaDetector file="e2output.xml" freq="60" friendlyPos="x" id="e2detLoop_167458863#2_1" lane="167458863#2_1" length="10" pos="17.61"/>
    <laneAreaDetector file="e2output.xml" freq="60" friendlyPos="x" id="e2detLoop_167458863#2_2" lane="167458863#2_2" length="10" pos="17.61"/>
    <laneAreaDetector file="e2output.xml" freq="60" friendlyPos="x" id="e2detLoop_36907454#0_1" lane="36907454#0_1" length="10" pos="238.01000000000002"/>
    <laneAreaDetector file="e2output.xml" freq="60" friendlyPos="x" id="e2detLoop_166753092#5_1" lane="166753092#5_1" length="10" pos="302.98999999999995"/>
    <laneAreaDetector file="e2output.xml" freq="60" friendlyPos="x" id="e2detLoop_166753092#5_2" lane="166753092#5_2" length="10" pos="302.98999999999995"/>
    <laneAreaDetector file="e2output.xml" freq="60" friendlyPos="x" id="e2detLoop_167459400#2_1" lane="167459400#2_1" length="10" pos="143.66"/>
    <laneAreaDetector file="e2output.xml" freq="60" friendlyPos="x" id="e2detLoop_167459400#2_2" lane="167459400#2_2" length="10" pos="143.66"/>
    <laneAreaDetector file="e2output.xml" freq="60" friendlyPos="x" id="e2detLoop_172932752#14_1" lane="172932752#14_1" length="10" pos="45.97"/>
    <laneAreaDetector file="e2output.xml" freq="60" friendlyPos="x" id="e2detLoop_172932752#14_2" lane="172932752#14_2" length="10" pos="45.97"/>
    <laneAreaDetector file="e2output.xml" freq="60" friendlyPos="x" id="e2detLoop_173008341#1_1" lane="173008341#1_1" length="10" pos="76.22"/>
    <laneAreaDetector file="e2output.xml" freq="60" friendlyPos="x" id="e2detLoop_173008341#1_2" lane="173008341#1_2" length="10" pos="76.22"/>
    <laneAreaDetector file="e2output.xml" freq="60" friendlyPos="x" id="e2detLoop_166753093#0_1" lane="166753093#0_1" length="10" pos="66.16000000000001"/>
    <laneAreaDetector file="e2output.xml" freq="60" friendlyPos="x" id="e2detLoop_166753093#0_2" lane="166753093#0_2" length="10" pos="66.16000000000001"/>
    <laneAreaDetector file="e2output.xml" freq="60" friendlyPos="x" id="e2detLoop_166954897#7_0" lane="166954897#7_0" length="10" pos="11.639999999999999"/>
    <laneAreaDetector file="e2output.xml" freq="60" friendlyPos="x" id="e2detLoop_166954897#7_1" lane="166954897#7_1" length="10" pos="11.639999999999999"/>
    <laneAreaDetector file="e2output.xml" freq="60" friendlyPos="x" id="e2detLoop_244329796#19_1" lane="244329796#19_1" length="10" pos="94.34"/>
    <laneAreaDetector file="e2output.xml" freq="60" friendlyPos="x" id="e2detLoop_244329796#19_2" lane="244329796#19_2" length="10" pos="94.34"/>
    <laneAreaDetector file="e2output.xml" freq="60" friendlyPos="x" id="e2detLoop_29376270#2_0" lane="29376270#2_0" length="10" pos="314.91999999999996"/>
    <laneAreaDetector file="e2output.xml" freq="60" friendlyPos="x" id="e2detLoop_29376270#2_1" lane="29376270#2_1" length="10" pos="314.91999999999996"/>
    <laneAreaDetector file="e2output.xml" freq="60" friendlyPos="x" id="e2detLoop_325004668#2_1" lane="325004668#2_1" length="10" pos="149.73000000000002"/>
    <laneAreaDetector file="e2output.xml" freq="60" friendlyPos="x" id="e2detLoop_166954897#0_0" lane="166954897#0_0" length="10" pos="199.49"/>
    <laneAreaDetector file="e2output.xml" freq="60" friendlyPos="x" id="e2detLoop_166954897#0_1" lane="166954897#0_1" length="10" pos="199.49"/>
    <laneAreaDetector file="e2output.xml" freq="60" friendlyPos="x" id="e2detLoop_167584432#5_1" lane="167584432#5_1" length="10" pos="128.5"/>
    <laneAreaDetector file="e2output.xml" freq="60" friendlyPos="x" id="e2detLoop_167584432#5_2" lane="167584432#5_2" length="10" pos="128.5"/>
    <laneAreaDetector file="e2output.xml" freq="60" friendlyPos="x" id="e2detLoop_167584711#0_1" lane="167584711#0_1" length="10" pos="126.5"/>
    <laneAreaDetector file="e2output.xml" freq="60" friendlyPos="x" id="e2detLoop_167584711#0_2" lane="167584711#0_2" length="10" pos="126.5"/>
    <laneAreaDetector file="e2output.xml" freq="60" friendlyPos="x" id="e2detLoop_244327260#3_0" lane="244327260#3_0" length="10" pos="231.52"/>
    <laneAreaDetector file="e2output.xml" freq="60" friendlyPos="x" id="e2detLoop_244327260#3_1" lane="244327260#3_1" length="10" pos="231.52"/>

    <laneAreaDetector file="e2output.xml" freq="60" friendlyPos="x" id="e2detLoop_167458863#5_1" lane="167458863#5_1" length="10" pos="82.48"/>
    <laneAreaDetector file="e2output.xml" freq="60" friendlyPos="x" id="e2detLoop_167458863#5_2" lane="167458863#5_2" length="10" pos="82.48"/>
    <laneAreaDetector file="e2output.xml" freq="60" friendlyPos="x" id="e2detLoop_167461552#2_1" lane="167461552#2_1" length="10" pos="137.5"/>
    <laneAreaDetector file="e2output.xml" freq="60" friendlyPos="x" id="e2detLoop_167461552#2_2" lane="167461552#2_2" length="10" pos="137.5"/>
    <laneAreaDetector file="e2output.xml" freq="60" friendlyPos="x" id="e2detLoop_167461557#1_1" lane="167461557#1_1" length="10" pos="75.54"/>
    <laneAreaDetector file="e2output.xml" freq="60" friendlyPos="x" id="e2detLoop_167461557#1_2" lane="167461557#1_2" length="10" pos="75.54"/>
    <laneAreaDetector file="e2output.xml" freq="60" friendlyPos="x" id="e2detLoop_37358087#7_1" lane="37358087#7_1" length="10" pos="169.05"/>
    <laneAreaDetector file="e2output.xml" freq="60" friendlyPos="x" id="e2detLoop_37358087#7_2" lane="37358087#7_2" length="10" pos="169.05"/>
    <laneAreaDetector file="e2output.xml" freq="60" friendlyPos="x" id="e2detLoop_167456692#2_1" lane="167456692#2_1" length="10" pos="81.96000000000001"/>
    <laneAreaDetector file="e2output.xml" freq="60" friendlyPos="x" id="e2detLoop_167456692#2_2" lane="167456692#2_2" length="10" pos="81.96000000000001"/>
    <laneAreaDetector file="e2output.xml" freq="60" friendlyPos="x" id="e2detLoop_167456698#1_1" lane="167456698#1_1" length="10" pos="20.93"/>
    <laneAreaDetector file="e2output.xml" freq="60" friendlyPos="x" id="e2detLoop_167456698#1_2" lane="167456698#1_2" length="10" pos="20.93"/>
    <laneAreaDetector file="e2output.xml" freq="60" friendlyPos="x" id="e2detLoop_167457328_1" lane="167457328_1" length="10" pos="15.35"/>
    <laneAreaDetector file="e2output.xml" freq="60" friendlyPos="x" id="e2detLoop_167457328_2" lane="167457328_2" length="10" pos="15.35"/>
    <laneAreaDetector file="e2output.xml" freq="60" friendlyPos="x" id="e2detLoop_167458864_1" lane="167458864_1" length="10" pos="41.129999999999995"/>
    <laneAreaDetector file="e2output.xml" freq="60" friendlyPos="x" id="e2detLoop_167458864_2" lane="167458864_2" length="10" pos="41.129999999999995"/>
    <laneAreaDetector file="e2output.xml" freq="60" friendlyPos="x" id="e2detLoop_548059341#1_0" lane="548059341#1_0" length="10" pos="21.38"/>
    <laneAreaDetector file="e2output.xml" freq="60" friendlyPos="x" id="e2detLoop_562729591_1" lane="562729591_1" length="10" pos="24.35"/>
    <laneAreaDetector file="e2output.xml" freq="60" friendlyPos="x" id="e2detLoop_167461554#2_1" lane="167461554#2_1" length="10" pos="226.15"/>
    <laneAreaDetector file="e2output.xml" freq="60" friendlyPos="x" id="e2detLoop_167461554#2_2" lane="167461554#2_2" length="10" pos="226.15"/>
    <laneAreaDetector file="e2output.xml" freq="60" friendlyPos="x" id="e2detLoop_167462415#3_1" lane="167462415#3_1" length="10" pos="276.21"/>
    <laneAreaDetector file="e2output.xml" freq="60" friendlyPos="x" id="e2detLoop_167462415#3_2" lane="167462415#3_2" length="10" pos="276.21"/>
    <laneAreaDetector file="e2output.xml" freq="60" friendlyPos="x" id="e2detLoop_167468375#1_1" lane="167468375#1_1" length="10" pos="32.559999999999995"/>
    <laneAreaDetector file="e2output.xml" freq="60" friendlyPos="x" id="e2detLoop_167468375#1_2" lane="167468375#1_2" length="10" pos="32.559999999999995"/>
    <laneAreaDetector file="e2output.xml" freq="60" friendlyPos="x" id="e2detLoop_172932752#17_1" lane="172932752#17_1" length="10" pos="111.12"/>
    <laneAreaDetector file="e2output.xml" freq="60" friendlyPos="x" id="e2detLoop_172932752#17_2" lane="172932752#17_2" length="10" pos="111.12"/>
</additional>
