<?xml version="1.0" encoding="UTF-8"?>

<!-- generated on Tue Feb 25 14:25:17 2020 by Eclipse SUMO duarouter Version 1.2.0
<configuration xmlns:xsi="http://www.w3.org/2001/XMLSchema-instance" xsi:noNamespaceSchemaLocation="http://sumo.dlr.de/xsd/duarouterConfiguration.xsd">

    <input>
        <net-file value="fourPhases.net.xml"/>
        <route-files value="od_file.odtrips.xml"/>
    </input>

    <output>
        <output-file value="odRoute.rou.xml"/>
        <alternatives-output value="odRoute.rou.alt.xml"/>
    </output>

</configuration>
-->

<routes xmlns:xsi="http://www.w3.org/2001/XMLSchema-instance" xsi:noNamespaceSchemaLocation="http://sumo.dlr.de/xsd/routes_file.xsd">
    <vehicle id="63" depart="0.79" departLane="free" departSpeed="max" fromTaz="1" toTaz="2">
        <route edges="244329796#13 244329796#14 244329796#15 244329796#16 244329796#17 244329796#18 244329796#19 244327260#2 244327260#3 244327260#6"/>
    </vehicle>
    <vehicle id="283" depart="2.83" departLane="free" departSpeed="max" fromTaz="1" toTaz="2">
        <route edges="244329796#13 244329796#14 244329796#15 244329796#16 244329796#17 244329796#18 244329796#19 244327260#2 244327260#3 244327260#6"/>
    </vehicle>
    <vehicle id="519" depart="4.77" departLane="free" departSpeed="max" fromTaz="1" toTaz="2">
        <route edges="244329796#13 244329796#14 244329796#15 244329796#16 244329796#17 244329796#18 244329796#19 244327260#2 244327260#3 244327260#6"/>
    </vehicle>
    <vehicle id="245" depart="11.12" departLane="free" departSpeed="max" fromTaz="1" toTaz="2">
        <route edges="244329796#13 244329796#14 244329796#15 244329796#16 244329796#17 244329796#18 244329796#19 244327260#2 244327260#3 244327260#6"/>
    </vehicle>
    <vehicle id="1351" depart="16.08" departLane="free" departSpeed="max" fromTaz="1" toTaz="2">
        <route edges="244329796#13 244329796#14 244329796#15 244329796#16 244329796#17 244329796#18 244329796#19 244327260#2 244327260#3 244327260#6"/>
    </vehicle>
    <vehicle id="88" depart="16.72" departLane="free" departSpeed="max" fromTaz="1" toTaz="2">
        <route edges="244329796#13 244329796#14 244329796#15 244329796#16 244329796#17 244329796#18 244329796#19 244327260#2 244327260#3 244327260#6"/>
    </vehicle>
    <vehicle id="9" depart="18.39" departLane="free" departSpeed="max" fromTaz="1" toTaz="2">
        <route edges="244329796#13 244329796#14 244329796#15 244329796#16 244329796#17 244329796#18 244329796#19 244327260#2 244327260#3 244327260#6"/>
    </vehicle>
    <vehicle id="749" depart="18.97" departLane="free" departSpeed="max" fromTaz="1" toTaz="2">
        <route edges="244329796#13 244329796#14 244329796#15 244329796#16 244329796#17 244329796#18 244329796#19 244327260#2 244327260#3 244327260#6"/>
    </vehicle>
    <vehicle id="412" depart="19.61" departLane="free" departSpeed="max" fromTaz="1" toTaz="2">
        <route edges="244329796#13 244329796#14 244329796#15 244329796#16 244329796#17 244329796#18 244329796#19 244327260#2 244327260#3 244327260#6"/>
    </vehicle>
    <vehicle id="1397" depart="22.82" departLane="free" departSpeed="max" fromTaz="1" toTaz="2">
        <route edges="244329796#13 244329796#14 244329796#15 244329796#16 244329796#17 244329796#18 244329796#19 244327260#2 244327260#3 244327260#6"/>
    </vehicle>
    <vehicle id="391" depart="23.05" departLane="free" departSpeed="max" fromTaz="1" toTaz="2">
        <route edges="244329796#13 244329796#14 244329796#15 244329796#16 244329796#17 244329796#18 244329796#19 244327260#2 244327260#3 244327260#6"/>
    </vehicle>
    <vehicle id="1144" depart="23.89" departLane="free" departSpeed="max" fromTaz="1" toTaz="2">
        <route edges="244329796#13 244329796#14 244329796#15 244329796#16 244329796#17 244329796#18 244329796#19 244327260#2 244327260#3 244327260#6"/>
    </vehicle>
    <vehicle id="1428" depart="24.44" departLane="free" departSpeed="max" fromTaz="1" toTaz="2">
        <route edges="244329796#13 244329796#14 244329796#15 244329796#16 244329796#17 244329796#18 244329796#19 244327260#2 244327260#3 244327260#6"/>
    </vehicle>
    <vehicle id="1387" depart="32.14" departLane="free" departSpeed="max" fromTaz="1" toTaz="2">
        <route edges="244329796#13 244329796#14 244329796#15 244329796#16 244329796#17 244329796#18 244329796#19 244327260#2 244327260#3 244327260#6"/>
    </vehicle>
    <vehicle id="1289" depart="36.35" departLane="free" departSpeed="max" fromTaz="1" toTaz="2">
        <route edges="244329796#13 244329796#14 244329796#15 244329796#16 244329796#17 244329796#18 244329796#19 244327260#2 244327260#3 244327260#6"/>
    </vehicle>
    <vehicle id="198" depart="36.86" departLane="free" departSpeed="max" fromTaz="1" toTaz="2">
        <route edges="244329796#13 244329796#14 244329796#15 244329796#16 244329796#17 244329796#18 244329796#19 244327260#2 244327260#3 244327260#6"/>
    </vehicle>
    <vehicle id="526" depart="37.70" departLane="free" departSpeed="max" fromTaz="1" toTaz="2">
        <route edges="244329796#13 244329796#14 244329796#15 244329796#16 244329796#17 244329796#18 244329796#19 244327260#2 244327260#3 244327260#6"/>
    </vehicle>
    <vehicle id="142" depart="39.03" departLane="free" departSpeed="max" fromTaz="1" toTaz="2">
        <route edges="244329796#13 244329796#14 244329796#15 244329796#16 244329796#17 244329796#18 244329796#19 244327260#2 244327260#3 244327260#6"/>
    </vehicle>
    <vehicle id="1416" depart="44.99" departLane="free" departSpeed="max" fromTaz="1" toTaz="2">
        <route edges="244329796#13 244329796#14 244329796#15 244329796#16 244329796#17 244329796#18 244329796#19 244327260#2 244327260#3 244327260#6"/>
    </vehicle>
    <vehicle id="571" depart="46.90" departLane="free" departSpeed="max" fromTaz="1" toTaz="2">
        <route edges="244329796#13 244329796#14 244329796#15 244329796#16 244329796#17 244329796#18 244329796#19 244327260#2 244327260#3 244327260#6"/>
    </vehicle>
    <vehicle id="772" depart="47.95" departLane="free" departSpeed="max" fromTaz="1" toTaz="2">
        <route edges="244329796#13 244329796#14 244329796#15 244329796#16 244329796#17 244329796#18 244329796#19 244327260#2 244327260#3 244327260#6"/>
    </vehicle>
    <vehicle id="1244" depart="49.05" departLane="free" departSpeed="max" fromTaz="1" toTaz="2">
        <route edges="244329796#13 244329796#14 244329796#15 244329796#16 244329796#17 244329796#18 244329796#19 244327260#2 244327260#3 244327260#6"/>
    </vehicle>
    <vehicle id="1446" depart="51.33" departLane="free" departSpeed="max" fromTaz="1" toTaz="2">
        <route edges="244329796#13 244329796#14 244329796#15 244329796#16 244329796#17 244329796#18 244329796#19 244327260#2 244327260#3 244327260#6"/>
    </vehicle>
    <vehicle id="543" depart="54.47" departLane="free" departSpeed="max" fromTaz="1" toTaz="2">
        <route edges="244329796#13 244329796#14 244329796#15 244329796#16 244329796#17 244329796#18 244329796#19 244327260#2 244327260#3 244327260#6"/>
    </vehicle>
    <vehicle id="1327" depart="55.39" departLane="free" departSpeed="max" fromTaz="1" toTaz="2">
        <route edges="244329796#13 244329796#14 244329796#15 244329796#16 244329796#17 244329796#18 244329796#19 244327260#2 244327260#3 244327260#6"/>
    </vehicle>
    <vehicle id="5" depart="55.65" departLane="free" departSpeed="max" fromTaz="1" toTaz="2">
        <route edges="244329796#13 244329796#14 244329796#15 244329796#16 244329796#17 244329796#18 244329796#19 244327260#2 244327260#3 244327260#6"/>
    </vehicle>
    <vehicle id="1051" depart="59.07" departLane="free" departSpeed="max" fromTaz="1" toTaz="2">
        <route edges="244329796#13 244329796#14 244329796#15 244329796#16 244329796#17 244329796#18 244329796#19 244327260#2 244327260#3 244327260#6"/>
    </vehicle>
    <vehicle id="1430" depart="59.85" departLane="free" departSpeed="max" fromTaz="1" toTaz="2">
        <route edges="244329796#13 244329796#14 244329796#15 244329796#16 244329796#17 244329796#18 244329796#19 244327260#2 244327260#3 244327260#6"/>
    </vehicle>
    <vehicle id="1154" depart="63.18" departLane="free" departSpeed="max" fromTaz="1" toTaz="2">
        <route edges="244329796#13 244329796#14 244329796#15 244329796#16 244329796#17 244329796#18 244329796#19 244327260#2 244327260#3 244327260#6"/>
    </vehicle>
    <vehicle id="597" depart="70.72" departLane="free" departSpeed="max" fromTaz="1" toTaz="2">
        <route edges="244329796#13 244329796#14 244329796#15 244329796#16 244329796#17 244329796#18 244329796#19 244327260#2 244327260#3 244327260#6"/>
    </vehicle>
    <vehicle id="1076" depart="72.86" departLane="free" departSpeed="max" fromTaz="1" toTaz="2">
        <route edges="244329796#13 244329796#14 244329796#15 244329796#16 244329796#17 244329796#18 244329796#19 244327260#2 244327260#3 244327260#6"/>
    </vehicle>
    <vehicle id="587" depart="73.98" departLane="free" departSpeed="max" fromTaz="1" toTaz="2">
        <route edges="244329796#13 244329796#14 244329796#15 244329796#16 244329796#17 244329796#18 244329796#19 244327260#2 244327260#3 244327260#6"/>
    </vehicle>
    <vehicle id="711" depart="76.05" departLane="free" departSpeed="max" fromTaz="1" toTaz="2">
        <route edges="244329796#13 244329796#14 244329796#15 244329796#16 244329796#17 244329796#18 244329796#19 244327260#2 244327260#3 244327260#6"/>
    </vehicle>
    <vehicle id="551" depart="76.76" departLane="free" departSpeed="max" fromTaz="1" toTaz="2">
        <route edges="244329796#13 244329796#14 244329796#15 244329796#16 244329796#17 244329796#18 244329796#19 244327260#2 244327260#3 244327260#6"/>
    </vehicle>
    <vehicle id="418" depart="77.89" departLane="free" departSpeed="max" fromTaz="1" toTaz="2">
        <route edges="244329796#13 244329796#14 244329796#15 244329796#16 244329796#17 244329796#18 244329796#19 244327260#2 244327260#3 244327260#6"/>
    </vehicle>
    <vehicle id="111" depart="81.62" departLane="free" departSpeed="max" fromTaz="1" toTaz="2">
        <route edges="244329796#13 244329796#14 244329796#15 244329796#16 244329796#17 244329796#18 244329796#19 244327260#2 244327260#3 244327260#6"/>
    </vehicle>
    <vehicle id="829" depart="88.88" departLane="free" departSpeed="max" fromTaz="1" toTaz="2">
        <route edges="244329796#13 244329796#14 244329796#15 244329796#16 244329796#17 244329796#18 244329796#19 244327260#2 244327260#3 244327260#6"/>
    </vehicle>
    <vehicle id="1006" depart="89.14" departLane="free" departSpeed="max" fromTaz="1" toTaz="2">
        <route edges="244329796#13 244329796#14 244329796#15 244329796#16 244329796#17 244329796#18 244329796#19 244327260#2 244327260#3 244327260#6"/>
    </vehicle>
    <vehicle id="907" depart="92.51" departLane="free" departSpeed="max" fromTaz="1" toTaz="2">
        <route edges="244329796#13 244329796#14 244329796#15 244329796#16 244329796#17 244329796#18 244329796#19 244327260#2 244327260#3 244327260#6"/>
    </vehicle>
    <vehicle id="1367" depart="94.16" departLane="free" departSpeed="max" fromTaz="1" toTaz="2">
        <route edges="244329796#13 244329796#14 244329796#15 244329796#16 244329796#17 244329796#18 244329796#19 244327260#2 244327260#3 244327260#6"/>
    </vehicle>
    <vehicle id="915" depart="95.90" departLane="free" departSpeed="max" fromTaz="1" toTaz="2">
        <route edges="244329796#13 244329796#14 244329796#15 244329796#16 244329796#17 244329796#18 244329796#19 244327260#2 244327260#3 244327260#6"/>
    </vehicle>
    <vehicle id="1384" depart="100.27" departLane="free" departSpeed="max" fromTaz="1" toTaz="2">
        <route edges="244329796#13 244329796#14 244329796#15 244329796#16 244329796#17 244329796#18 244329796#19 244327260#2 244327260#3 244327260#6"/>
    </vehicle>
    <vehicle id="223" depart="101.43" departLane="free" departSpeed="max" fromTaz="1" toTaz="2">
        <route edges="244329796#13 244329796#14 244329796#15 244329796#16 244329796#17 244329796#18 244329796#19 244327260#2 244327260#3 244327260#6"/>
    </vehicle>
    <vehicle id="508" depart="105.18" departLane="free" departSpeed="max" fromTaz="1" toTaz="2">
        <route edges="244329796#13 244329796#14 244329796#15 244329796#16 244329796#17 244329796#18 244329796#19 244327260#2 244327260#3 244327260#6"/>
    </vehicle>
    <vehicle id="399" depart="106.94" departLane="free" departSpeed="max" fromTaz="1" toTaz="2">
        <route edges="244329796#13 244329796#14 244329796#15 244329796#16 244329796#17 244329796#18 244329796#19 244327260#2 244327260#3 244327260#6"/>
    </vehicle>
    <vehicle id="367" depart="107.93" departLane="free" departSpeed="max" fromTaz="1" toTaz="2">
        <route edges="244329796#13 244329796#14 244329796#15 244329796#16 244329796#17 244329796#18 244329796#19 244327260#2 244327260#3 244327260#6"/>
    </vehicle>
    <vehicle id="695" depart="108.25" departLane="free" departSpeed="max" fromTaz="1" toTaz="2">
        <route edges="244329796#13 244329796#14 244329796#15 244329796#16 244329796#17 244329796#18 244329796#19 244327260#2 244327260#3 244327260#6"/>
    </vehicle>
    <vehicle id="1337" depart="108.76" departLane="free" departSpeed="max" fromTaz="1" toTaz="2">
        <route edges="244329796#13 244329796#14 244329796#15 244329796#16 244329796#17 244329796#18 244329796#19 244327260#2 244327260#3 244327260#6"/>
    </vehicle>
    <vehicle id="873" depart="108.86" departLane="free" departSpeed="max" fromTaz="1" toTaz="2">
        <route edges="244329796#13 244329796#14 244329796#15 244329796#16 244329796#17 244329796#18 244329796#19 244327260#2 244327260#3 244327260#6"/>
    </vehicle>
    <vehicle id="884" depart="110.09" departLane="free" departSpeed="max" fromTaz="1" toTaz="2">
        <route edges="244329796#13 244329796#14 244329796#15 244329796#16 244329796#17 244329796#18 244329796#19 244327260#2 244327260#3 244327260#6"/>
    </vehicle>
    <vehicle id="370" depart="114.89" departLane="free" departSpeed="max" fromTaz="1" toTaz="2">
        <route edges="244329796#13 244329796#14 244329796#15 244329796#16 244329796#17 244329796#18 244329796#19 244327260#2 244327260#3 244327260#6"/>
    </vehicle>
    <vehicle id="129" depart="116.59" departLane="free" departSpeed="max" fromTaz="1" toTaz="2">
        <route edges="244329796#13 244329796#14 244329796#15 244329796#16 244329796#17 244329796#18 244329796#19 244327260#2 244327260#3 244327260#6"/>
    </vehicle>
    <vehicle id="960" depart="120.35" departLane="free" departSpeed="max" fromTaz="1" toTaz="2">
        <route edges="244329796#13 244329796#14 244329796#15 244329796#16 244329796#17 244329796#18 244329796#19 244327260#2 244327260#3 244327260#6"/>
    </vehicle>
    <vehicle id="944" depart="127.28" departLane="free" departSpeed="max" fromTaz="1" toTaz="2">
        <route edges="244329796#13 244329796#14 244329796#15 244329796#16 244329796#17 244329796#18 244329796#19 244327260#2 244327260#3 244327260#6"/>
    </vehicle>
    <vehicle id="1254" depart="135.94" departLane="free" departSpeed="max" fromTaz="1" toTaz="2">
        <route edges="244329796#13 244329796#14 244329796#15 244329796#16 244329796#17 244329796#18 244329796#19 244327260#2 244327260#3 244327260#6"/>
    </vehicle>
    <vehicle id="920" depart="138.74" departLane="free" departSpeed="max" fromTaz="1" toTaz="2">
        <route edges="244329796#13 244329796#14 244329796#15 244329796#16 244329796#17 244329796#18 244329796#19 244327260#2 244327260#3 244327260#6"/>
    </vehicle>
    <vehicle id="648" depart="145.86" departLane="free" departSpeed="max" fromTaz="1" toTaz="2">
        <route edges="244329796#13 244329796#14 244329796#15 244329796#16 244329796#17 244329796#18 244329796#19 244327260#2 244327260#3 244327260#6"/>
    </vehicle>
    <vehicle id="318" depart="150.40" departLane="free" departSpeed="max" fromTaz="1" toTaz="2">
        <route edges="244329796#13 244329796#14 244329796#15 244329796#16 244329796#17 244329796#18 244329796#19 244327260#2 244327260#3 244327260#6"/>
    </vehicle>
    <vehicle id="546" depart="153.28" departLane="free" departSpeed="max" fromTaz="1" toTaz="2">
        <route edges="244329796#13 244329796#14 244329796#15 244329796#16 244329796#17 244329796#18 244329796#19 244327260#2 244327260#3 244327260#6"/>
    </vehicle>
    <vehicle id="565" depart="153.62" departLane="free" departSpeed="max" fromTaz="1" toTaz="2">
        <route edges="244329796#13 244329796#14 244329796#15 244329796#16 244329796#17 244329796#18 244329796#19 244327260#2 244327260#3 244327260#6"/>
    </vehicle>
    <vehicle id="1415" depart="158.23" departLane="free" departSpeed="max" fromTaz="1" toTaz="2">
        <route edges="244329796#13 244329796#14 244329796#15 244329796#16 244329796#17 244329796#18 244329796#19 244327260#2 244327260#3 244327260#6"/>
    </vehicle>
    <vehicle id="650" depart="159.54" departLane="free" departSpeed="max" fromTaz="1" toTaz="2">
        <route edges="244329796#13 244329796#14 244329796#15 244329796#16 244329796#17 244329796#18 244329796#19 244327260#2 244327260#3 244327260#6"/>
    </vehicle>
    <vehicle id="19" depart="163.02" departLane="free" departSpeed="max" fromTaz="1" toTaz="2">
        <route edges="244329796#13 244329796#14 244329796#15 244329796#16 244329796#17 244329796#18 244329796#19 244327260#2 244327260#3 244327260#6"/>
    </vehicle>
    <vehicle id="567" depart="167.76" departLane="free" departSpeed="max" fromTaz="1" toTaz="2">
        <route edges="244329796#13 244329796#14 244329796#15 244329796#16 244329796#17 244329796#18 244329796#19 244327260#2 244327260#3 244327260#6"/>
    </vehicle>
    <vehicle id="1462" depart="168.69" departLane="free" departSpeed="max" fromTaz="1" toTaz="2">
        <route edges="244329796#13 244329796#14 244329796#15 244329796#16 244329796#17 244329796#18 244329796#19 244327260#2 244327260#3 244327260#6"/>
    </vehicle>
    <vehicle id="92" depart="169.75" departLane="free" departSpeed="max" fromTaz="1" toTaz="2">
        <route edges="244329796#13 244329796#14 244329796#15 244329796#16 244329796#17 244329796#18 244329796#19 244327260#2 244327260#3 244327260#6"/>
    </vehicle>
    <vehicle id="1053" depart="179.28" departLane="free" departSpeed="max" fromTaz="1" toTaz="2">
        <route edges="244329796#13 244329796#14 244329796#15 244329796#16 244329796#17 244329796#18 244329796#19 244327260#2 244327260#3 244327260#6"/>
    </vehicle>
    <vehicle id="137" depart="179.52" departLane="free" departSpeed="max" fromTaz="1" toTaz="2">
        <route edges="244329796#13 244329796#14 244329796#15 244329796#16 244329796#17 244329796#18 244329796#19 244327260#2 244327260#3 244327260#6"/>
    </vehicle>
    <vehicle id="457" depart="182.42" departLane="free" departSpeed="max" fromTaz="1" toTaz="2">
        <route edges="244329796#13 244329796#14 244329796#15 244329796#16 244329796#17 244329796#18 244329796#19 244327260#2 244327260#3 244327260#6"/>
    </vehicle>
    <vehicle id="1023" depart="185.27" departLane="free" departSpeed="max" fromTaz="1" toTaz="2">
        <route edges="244329796#13 244329796#14 244329796#15 244329796#16 244329796#17 244329796#18 244329796#19 244327260#2 244327260#3 244327260#6"/>
    </vehicle>
    <vehicle id="73" depart="186.01" departLane="free" departSpeed="max" fromTaz="1" toTaz="2">
        <route edges="244329796#13 244329796#14 244329796#15 244329796#16 244329796#17 244329796#18 244329796#19 244327260#2 244327260#3 244327260#6"/>
    </vehicle>
    <vehicle id="378" depart="187.53" departLane="free" departSpeed="max" fromTaz="1" toTaz="2">
        <route edges="244329796#13 244329796#14 244329796#15 244329796#16 244329796#17 244329796#18 244329796#19 244327260#2 244327260#3 244327260#6"/>
    </vehicle>
    <vehicle id="503" depart="200.43" departLane="free" departSpeed="max" fromTaz="1" toTaz="2">
        <route edges="244329796#13 244329796#14 244329796#15 244329796#16 244329796#17 244329796#18 244329796#19 244327260#2 244327260#3 244327260#6"/>
    </vehicle>
    <vehicle id="256" depart="202.94" departLane="free" departSpeed="max" fromTaz="1" toTaz="2">
        <route edges="244329796#13 244329796#14 244329796#15 244329796#16 244329796#17 244329796#18 244329796#19 244327260#2 244327260#3 244327260#6"/>
    </vehicle>
    <vehicle id="62" depart="207.72" departLane="free" departSpeed="max" fromTaz="1" toTaz="2">
        <route edges="244329796#13 244329796#14 244329796#15 244329796#16 244329796#17 244329796#18 244329796#19 244327260#2 244327260#3 244327260#6"/>
    </vehicle>
    <vehicle id="333" depart="208.04" departLane="free" departSpeed="max" fromTaz="1" toTaz="2">
        <route edges="244329796#13 244329796#14 244329796#15 244329796#16 244329796#17 244329796#18 244329796#19 244327260#2 244327260#3 244327260#6"/>
    </vehicle>
    <vehicle id="165" depart="211.05" departLane="free" departSpeed="max" fromTaz="1" toTaz="2">
        <route edges="244329796#13 244329796#14 244329796#15 244329796#16 244329796#17 244329796#18 244329796#19 244327260#2 244327260#3 244327260#6"/>
    </vehicle>
    <vehicle id="68" depart="212.57" departLane="free" departSpeed="max" fromTaz="1" toTaz="2">
        <route edges="244329796#13 244329796#14 244329796#15 244329796#16 244329796#17 244329796#18 244329796#19 244327260#2 244327260#3 244327260#6"/>
    </vehicle>
    <vehicle id="147" depart="214.16" departLane="free" departSpeed="max" fromTaz="1" toTaz="2">
        <route edges="244329796#13 244329796#14 244329796#15 244329796#16 244329796#17 244329796#18 244329796#19 244327260#2 244327260#3 244327260#6"/>
    </vehicle>
    <vehicle id="1460" depart="217.88" departLane="free" departSpeed="max" fromTaz="1" toTaz="2">
        <route edges="244329796#13 244329796#14 244329796#15 244329796#16 244329796#17 244329796#18 244329796#19 244327260#2 244327260#3 244327260#6"/>
    </vehicle>
    <vehicle id="918" depart="218.23" departLane="free" departSpeed="max" fromTaz="1" toTaz="2">
        <route edges="244329796#13 244329796#14 244329796#15 244329796#16 244329796#17 244329796#18 244329796#19 244327260#2 244327260#3 244327260#6"/>
    </vehicle>
    <vehicle id="1215" depart="219.03" departLane="free" departSpeed="max" fromTaz="1" toTaz="2">
        <route edges="244329796#13 244329796#14 244329796#15 244329796#16 244329796#17 244329796#18 244329796#19 244327260#2 244327260#3 244327260#6"/>
    </vehicle>
    <vehicle id="401" depart="220.26" departLane="free" departSpeed="max" fromTaz="1" toTaz="2">
        <route edges="244329796#13 244329796#14 244329796#15 244329796#16 244329796#17 244329796#18 244329796#19 244327260#2 244327260#3 244327260#6"/>
    </vehicle>
    <vehicle id="1062" depart="220.53" departLane="free" departSpeed="max" fromTaz="1" toTaz="2">
        <route edges="244329796#13 244329796#14 244329796#15 244329796#16 244329796#17 244329796#18 244329796#19 244327260#2 244327260#3 244327260#6"/>
    </vehicle>
    <vehicle id="409" depart="220.65" departLane="free" departSpeed="max" fromTaz="1" toTaz="2">
        <route edges="244329796#13 244329796#14 244329796#15 244329796#16 244329796#17 244329796#18 244329796#19 244327260#2 244327260#3 244327260#6"/>
    </vehicle>
    <vehicle id="264" depart="222.36" departLane="free" departSpeed="max" fromTaz="1" toTaz="2">
        <route edges="244329796#13 244329796#14 244329796#15 244329796#16 244329796#17 244329796#18 244329796#19 244327260#2 244327260#3 244327260#6"/>
    </vehicle>
    <vehicle id="362" depart="224.07" departLane="free" departSpeed="max" fromTaz="1" toTaz="2">
        <route edges="244329796#13 244329796#14 244329796#15 244329796#16 244329796#17 244329796#18 244329796#19 244327260#2 244327260#3 244327260#6"/>
    </vehicle>
    <vehicle id="965" depart="227.50" departLane="free" departSpeed="max" fromTaz="1" toTaz="2">
        <route edges="244329796#13 244329796#14 244329796#15 244329796#16 244329796#17 244329796#18 244329796#19 244327260#2 244327260#3 244327260#6"/>
    </vehicle>
    <vehicle id="1100" depart="232.39" departLane="free" departSpeed="max" fromTaz="1" toTaz="2">
        <route edges="244329796#13 244329796#14 244329796#15 244329796#16 244329796#17 244329796#18 244329796#19 244327260#2 244327260#3 244327260#6"/>
    </vehicle>
    <vehicle id="1184" depart="234.85" departLane="free" departSpeed="max" fromTaz="1" toTaz="2">
        <route edges="244329796#13 244329796#14 244329796#15 244329796#16 244329796#17 244329796#18 244329796#19 244327260#2 244327260#3 244327260#6"/>
    </vehicle>
    <vehicle id="945" depart="236.20" departLane="free" departSpeed="max" fromTaz="1" toTaz="2">
        <route edges="244329796#13 244329796#14 244329796#15 244329796#16 244329796#17 244329796#18 244329796#19 244327260#2 244327260#3 244327260#6"/>
    </vehicle>
    <vehicle id="27" depart="238.38" departLane="free" departSpeed="max" fromTaz="1" toTaz="2">
        <route edges="244329796#13 244329796#14 244329796#15 244329796#16 244329796#17 244329796#18 244329796#19 244327260#2 244327260#3 244327260#6"/>
    </vehicle>
    <vehicle id="534" depart="240.79" departLane="free" departSpeed="max" fromTaz="1" toTaz="2">
        <route edges="244329796#13 244329796#14 244329796#15 244329796#16 244329796#17 244329796#18 244329796#19 244327260#2 244327260#3 244327260#6"/>
    </vehicle>
    <vehicle id="1224" depart="243.18" departLane="free" departSpeed="max" fromTaz="1" toTaz="2">
        <route edges="244329796#13 244329796#14 244329796#15 244329796#16 244329796#17 244329796#18 244329796#19 244327260#2 244327260#3 244327260#6"/>
    </vehicle>
    <vehicle id="511" depart="243.94" departLane="free" departSpeed="max" fromTaz="1" toTaz="2">
        <route edges="244329796#13 244329796#14 244329796#15 244329796#16 244329796#17 244329796#18 244329796#19 244327260#2 244327260#3 244327260#6"/>
    </vehicle>
    <vehicle id="274" depart="244.16" departLane="free" departSpeed="max" fromTaz="1" toTaz="2">
        <route edges="244329796#13 244329796#14 244329796#15 244329796#16 244329796#17 244329796#18 244329796#19 244327260#2 244327260#3 244327260#6"/>
    </vehicle>
    <vehicle id="821" depart="244.71" departLane="free" departSpeed="max" fromTaz="1" toTaz="2">
        <route edges="244329796#13 244329796#14 244329796#15 244329796#16 244329796#17 244329796#18 244329796#19 244327260#2 244327260#3 244327260#6"/>
    </vehicle>
    <vehicle id="917" depart="248.19" departLane="free" departSpeed="max" fromTaz="1" toTaz="2">
        <route edges="244329796#13 244329796#14 244329796#15 244329796#16 244329796#17 244329796#18 244329796#19 244327260#2 244327260#3 244327260#6"/>
    </vehicle>
    <vehicle id="1463" depart="252.05" departLane="free" departSpeed="max" fromTaz="1" toTaz="2">
        <route edges="244329796#13 244329796#14 244329796#15 244329796#16 244329796#17 244329796#18 244329796#19 244327260#2 244327260#3 244327260#6"/>
    </vehicle>
    <vehicle id="1340" depart="257.87" departLane="free" departSpeed="max" fromTaz="1" toTaz="2">
        <route edges="244329796#13 244329796#14 244329796#15 244329796#16 244329796#17 244329796#18 244329796#19 244327260#2 244327260#3 244327260#6"/>
    </vehicle>
    <vehicle id="700" depart="259.99" departLane="free" departSpeed="max" fromTaz="1" toTaz="2">
        <route edges="244329796#13 244329796#14 244329796#15 244329796#16 244329796#17 244329796#18 244329796#19 244327260#2 244327260#3 244327260#6"/>
    </vehicle>
    <vehicle id="422" depart="260.97" departLane="free" departSpeed="max" fromTaz="1" toTaz="2">
        <route edges="244329796#13 244329796#14 244329796#15 244329796#16 244329796#17 244329796#18 244329796#19 244327260#2 244327260#3 244327260#6"/>
    </vehicle>
    <vehicle id="1151" depart="262.29" departLane="free" departSpeed="max" fromTaz="1" toTaz="2">
        <route edges="244329796#13 244329796#14 244329796#15 244329796#16 244329796#17 244329796#18 244329796#19 244327260#2 244327260#3 244327260#6"/>
    </vehicle>
    <vehicle id="808" depart="263.80" departLane="free" departSpeed="max" fromTaz="1" toTaz="2">
        <route edges="244329796#13 244329796#14 244329796#15 244329796#16 244329796#17 244329796#18 244329796#19 244327260#2 244327260#3 244327260#6"/>
    </vehicle>
    <vehicle id="1477" depart="269.70" departLane="free" departSpeed="max" fromTaz="1" toTaz="2">
        <route edges="244329796#13 244329796#14 244329796#15 244329796#16 244329796#17 244329796#18 244329796#19 244327260#2 244327260#3 244327260#6"/>
    </vehicle>
    <vehicle id="502" depart="272.92" departLane="free" departSpeed="max" fromTaz="1" toTaz="2">
        <route edges="244329796#13 244329796#14 244329796#15 244329796#16 244329796#17 244329796#18 244329796#19 244327260#2 244327260#3 244327260#6"/>
    </vehicle>
    <vehicle id="891" depart="275.22" departLane="free" departSpeed="max" fromTaz="1" toTaz="2">
        <route edges="244329796#13 244329796#14 244329796#15 244329796#16 244329796#17 244329796#18 244329796#19 244327260#2 244327260#3 244327260#6"/>
    </vehicle>
    <vehicle id="1300" depart="275.61" departLane="free" departSpeed="max" fromTaz="1" toTaz="2">
        <route edges="244329796#13 244329796#14 244329796#15 244329796#16 244329796#17 244329796#18 244329796#19 244327260#2 244327260#3 244327260#6"/>
    </vehicle>
    <vehicle id="403" depart="276.27" departLane="free" departSpeed="max" fromTaz="1" toTaz="2">
        <route edges="244329796#13 244329796#14 244329796#15 244329796#16 244329796#17 244329796#18 244329796#19 244327260#2 244327260#3 244327260#6"/>
    </vehicle>
    <vehicle id="619" depart="278.44" departLane="free" departSpeed="max" fromTaz="1" toTaz="2">
        <route edges="244329796#13 244329796#14 244329796#15 244329796#16 244329796#17 244329796#18 244329796#19 244327260#2 244327260#3 244327260#6"/>
    </vehicle>
    <vehicle id="781" depart="278.73" departLane="free" departSpeed="max" fromTaz="1" toTaz="2">
        <route edges="244329796#13 244329796#14 244329796#15 244329796#16 244329796#17 244329796#18 244329796#19 244327260#2 244327260#3 244327260#6"/>
    </vehicle>