<additional>
<tazs>
<taz id="1" edges="244329796#13">
</taz>
<taz id="2" edges="244327260#6">
</taz>
</tazs>
</additional>