<additional xmlns:xsi="http://www.w3.org/2001/XMLSchema-instance" xsi:noNamespaceSchemaLocation="http://sumo.dlr.de/xsd/additional_file.xsd">
    <e1Detector file="e1output.xml" freq="60" friendlyPos="x" id="outgoing1" lane="167589230#2_1" pos="0"/>
    <e1Detector file="e1output.xml" freq="60" friendlyPos="x" id="outgoing2" lane="-166753092#3_1" pos="0"/>
    <e1Detector file="e1output.xml" freq="60" friendlyPos="x" id="outgoing3" lane="-166753092#3_2" pos="0"/>
    <e1Detector file="e1output.xml" freq="60" friendlyPos="x" id="outgoing4" lane="-167589230#1_1" pos="0"/>
    <e1Detector file="e1output.xml" freq="60" friendlyPos="x" id="outgoing5" lane="166753092#4_2" pos="0"/>
    <e1Detector file="e1output.xml" freq="60" friendlyPos="x" id="outgoing6" lane="166753092#4_1" pos="0"/>
    <e1Detector file="e1output.xml" freq="60" friendlyPos="x" id="outgoing7" lane="244327259#6_1" pos="0"/>
    <e1Detector file="e1output.xml" freq="60" friendlyPos="x" id="outgoing8" lane="-324991740#4_1" pos="0"/>
    <e1Detector file="e1output.xml" freq="60" friendlyPos="x" id="outgoing9" lane="244329796#15_2" pos="0"/>
    <e1Detector file="e1output.xml" freq="60" friendlyPos="x" id="outgoing10" lane="166753911#0_1" pos="0"/>
    <e1Detector file="e1output.xml" freq="60" friendlyPos="x" id="outgoing11" lane="244327259#6_2" pos="0"/>
    <e1Detector file="e1output.xml" freq="60" friendlyPos="x" id="outgoing12" lane="244329796#15_1" pos="0"/>
    <e1Detector file="e1output.xml" freq="60" friendlyPos="x" id="outgoing13" lane="37555829#1_1" pos="0"/>
    <e1Detector file="e1output.xml" freq="60" friendlyPos="x" id="outgoing14" lane="-167186112#0_1" pos="0"/>
    <e1Detector file="e1output.xml" freq="60" friendlyPos="x" id="outgoing15" lane="-37555829#0_1" pos="373.16999999999996"/>
    <e1Detector file="e1output.xml" freq="60" friendlyPos="x" id="outgoing16" lane="167186112#1_1" pos="0"/>
    <e1Detector file="e1output.xml" freq="60" friendlyPos="x" id="outgoing17" lane="167584430#1_1" pos="0"/>
    <e1Detector file="e1output.xml" freq="60" friendlyPos="x" id="outgoing18" lane="-167186112#2_1" pos="0"/>
    <e1Detector file="e1output.xml" freq="60" friendlyPos="x" id="outgoing19" lane="37555809#8_1" pos="0"/>
    <e1Detector file="e1output.xml" freq="60" friendlyPos="x" id="outgoing20" lane="167186112#4_1" pos="0"/>
    <e1Detector file="e1output.xml" freq="60" friendlyPos="x" id="outgoing21" lane="167456088#0_1" pos="0"/>
    <e1Detector file="e1output.xml" freq="60" friendlyPos="x" id="outgoing22" lane="548059341#0_0" pos="87.08999999999997"/>
    <e1Detector file="e1output.xml" freq="60" friendlyPos="x" id="outgoing23" lane="167456698#0_2" pos="87.89999999999998"/>
    <e1Detector file="e1output.xml" freq="60" friendlyPos="x" id="outgoing24" lane="167456091#0_2" pos="0"/>
    <e1Detector file="e1output.xml" freq="60" friendlyPos="x" id="outgoing25" lane="167456094_2" pos="208.82"/>
    <e1Detector file="e1output.xml" freq="60" friendlyPos="x" id="outgoing26" lane="167456094_1" pos="208.82"/>
    <e1Detector file="e1output.xml" freq="60" friendlyPos="x" id="outgoing27" lane="167456093_1" pos="204.72000000000003"/>
    <e1Detector file="e1output.xml" freq="60" friendlyPos="x" id="outgoing28" lane="167456088#0_2" pos="0"/>
    <e1Detector file="e1output.xml" freq="60" friendlyPos="x" id="outgoing29" lane="167456698#0_1" pos="87.89999999999998"/>
    <e1Detector file="e1output.xml" freq="60" friendlyPos="x" id="outgoing30" lane="167456091#0_1" pos="0"/>
    <e1Detector file="e1output.xml" freq="60" friendlyPos="x" id="outgoing31" lane="167456093_2" pos="204.72000000000003"/>
    <e1Detector file="e1output.xml" freq="60" friendlyPos="x" id="outgoing32" lane="167456092#0_1" pos="0"/>
    <e1Detector file="e1output.xml" freq="60" friendlyPos="x" id="outgoing33" lane="-361576970_1" pos="0"/>
    <e1Detector file="e1output.xml" freq="60" friendlyPos="x" id="outgoing34" lane="-36897741#1_1" pos="0"/>
    <e1Detector file="e1output.xml" freq="60" friendlyPos="x" id="outgoing35" lane="167456693_2" pos="11.980000000000018"/>
    <e1Detector file="e1output.xml" freq="60" friendlyPos="x" id="outgoing36" lane="167456092#0_2" pos="0"/>
    <e1Detector file="e1output.xml" freq="60" friendlyPos="x" id="outgoing37" lane="167456693_1" pos="11.980000000000018"/>
    <e1Detector file="e1output.xml" freq="60" friendlyPos="x" id="outgoing38" lane="167584434#5_1" pos="0"/>
    <e1Detector file="e1output.xml" freq="60" friendlyPos="x" id="outgoing39" lane="-166751738#1_1" pos="0"/>
    <e1Detector file="e1output.xml" freq="60" friendlyPos="x" id="outgoing40" lane="167584432#4_2" pos="0"/>
    <e1Detector file="e1output.xml" freq="60" friendlyPos="x" id="outgoing41" lane="166751738#3_1" pos="0"/>
    <e1Detector file="e1output.xml" freq="60" friendlyPos="x" id="outgoing42" lane="167584432#4_1" pos="0"/>
    <e1Detector file="e1output.xml" freq="60" friendlyPos="x" id="outgoing43" lane="167584434#5_2" pos="0"/>
    <e1Detector file="e1output.xml" freq="60" friendlyPos="x" id="outgoing44" lane="29376270#1_0" pos="0"/>
    <e1Detector file="e1output.xml" freq="60" friendlyPos="x" id="outgoing45" lane="-167585225#0_1" pos="0"/>
    <e1Detector file="e1output.xml" freq="60" friendlyPos="x" id="outgoing46" lane="-167585225#0_2" pos="0"/>
    <e1Detector file="e1output.xml" freq="60" friendlyPos="x" id="outgoing47" lane="166753096#6_1" pos="552.3"/>
    <e1Detector file="e1output.xml" freq="60" friendlyPos="x" id="outgoing48" lane="167585225#2_2" pos="0"/>
    <e1Detector file="e1output.xml" freq="60" friendlyPos="x" id="outgoing49" lane="166753096#6_0" pos="552.3"/>
    <e1Detector file="e1output.xml" freq="60" friendlyPos="x" id="outgoing50" lane="29376270#1_1" pos="0"/>
    <e1Detector file="e1output.xml" freq="60" friendlyPos="x" id="outgoing51" lane="167585225#2_1" pos="0"/>
    <e1Detector file="e1output.xml" freq="60" friendlyPos="x" id="outgoing52" lane="167584432#0_1" pos="0"/>
    <e1Detector file="e1output.xml" freq="60" friendlyPos="x" id="outgoing53" lane="37555809#2_1" pos="0"/>
    <e1Detector file="e1output.xml" freq="60" friendlyPos="x" id="outgoing54" lane="167584434#8_2" pos="0"/>
    <e1Detector file="e1output.xml" freq="60" friendlyPos="x" id="outgoing55" lane="167589223#0_1" pos="0"/>
    <e1Detector file="e1output.xml" freq="60" friendlyPos="x" id="outgoing56" lane="167584432#0_2" pos="0"/>
    <e1Detector file="e1output.xml" freq="60" friendlyPos="x" id="outgoing57" lane="167584434#8_1" pos="0"/>
    <e1Detector file="e1output.xml" freq="60" friendlyPos="x" id="outgoing58" lane="-330930076#1_1" pos="0"/>
    <e1Detector file="e1output.xml" freq="60" friendlyPos="x" id="outgoing59" lane="-167589223#1_1" pos="0"/>
    <e1Detector file="e1output.xml" freq="60" friendlyPos="x" id="outgoing60" lane="-167583193#2_1" pos="0"/>
    <e1Detector file="e1output.xml" freq="60" friendlyPos="x" id="outgoing61" lane="167589223#3_1" pos="0"/>
    <e1Detector file="e1output.xml" freq="60" friendlyPos="x" id="outgoing62" lane="-167468132#3_1" pos="0"/>
    <e1Detector file="e1output.xml" freq="60" friendlyPos="x" id="outgoing63" lane="-320244139#9_1" pos="0"/>
    <e1Detector file="e1output.xml" freq="60" friendlyPos="x" id="outgoing64" lane="-330925771#2_1" pos="0"/>
    <e1Detector file="e1output.xml" freq="60" friendlyPos="x" id="outgoing65" lane="320244139#11_1" pos="0"/>
    <e1Detector file="e1output.xml" freq="60" friendlyPos="x" id="outgoing66" lane="331667958#3_1" pos="0"/>
    <e1Detector file="e1output.xml" freq="60" friendlyPos="x" id="outgoing67" lane="-320244139#2_1" pos="0"/>
    <e1Detector file="e1output.xml" freq="60" friendlyPos="x" id="outgoing68" lane="-331667958#2_1" pos="0"/>
    <e1Detector file="e1output.xml" freq="60" friendlyPos="x" id="outgoing69" lane="320244139#3_1" pos="0"/>
    <e1Detector file="e1output.xml" freq="60" friendlyPos="x" id="outgoing70" lane="-36907635#5_1" pos="0"/>
    <e1Detector file="e1output.xml" freq="60" friendlyPos="x" id="outgoing71" lane="-36907357#1_1" pos="0"/>
    <e1Detector file="e1output.xml" freq="60" friendlyPos="x" id="outgoing72" lane="36907635#6_1" pos="0.35000000000002274"/>
    <e1Detector file="e1output.xml" freq="60" friendlyPos="x" id="outgoing73" lane="331667211#0_1" pos="0"/>
    <e1Detector file="e1output.xml" freq="60" friendlyPos="x" id="outgoing74" lane="37571582#1_1" pos="0"/>
    <e1Detector file="e1output.xml" freq="60" friendlyPos="x" id="outgoing75" lane="-331667958#7_1" pos="0"/>
    <e1Detector file="e1output.xml" freq="60" friendlyPos="x" id="outgoing76" lane="-37571582#0_1" pos="0"/>
    <e1Detector file="e1output.xml" freq="60" friendlyPos="x" id="outgoing77" lane="331667958#8_1" pos="62.870000000000005"/>
    <e1Detector file="e1output.xml" freq="60" friendlyPos="x" id="outgoing78" lane="-37555823#1_1" pos="0"/>
    <e1Detector file="e1output.xml" freq="60" friendlyPos="x" id="outgoing79" lane="-331667964#1_1" pos="0"/>
    <e1Detector file="e1output.xml" freq="60" friendlyPos="x" id="outgoing80" lane="37555823#2_1" pos="0"/>
    <e1Detector file="e1output.xml" freq="60" friendlyPos="x" id="outgoing81" lane="331667964#2_1" pos="0"/>
    <e1Detector file="e1output.xml" freq="60" friendlyPos="x" id="outgoing82" lane="37573561#3_1" pos="0"/>
    <e1Detector file="e1output.xml" freq="60" friendlyPos="x" id="outgoing83" lane="-331667964#3_1" pos="0"/>
    <e1Detector file="e1output.xml" freq="60" friendlyPos="x" id="outgoing84" lane="-37573561#2_1" pos="0"/>
    <e1Detector file="e1output.xml" freq="60" friendlyPos="x" id="outgoing85" lane="331667964#4_1" pos="0"/>
    <e1Detector file="e1output.xml" freq="60" friendlyPos="x" id="outgoing86" lane="317891653#3_1" pos="0"/>
    <e1Detector file="e1output.xml" freq="60" friendlyPos="x" id="outgoing87" lane="336337248_1" pos="9.100000000000023"/>
    <e1Detector file="e1output.xml" freq="60" friendlyPos="x" id="outgoing88" lane="167462415#1_2" pos="0"/>
    <e1Detector file="e1output.xml" freq="60" friendlyPos="x" id="outgoing89" lane="335563875#0_1" pos="0"/>
    <e1Detector file="e1output.xml" freq="60" friendlyPos="x" id="outgoing90" lane="167462415#1_1" pos="0"/>
    <e1Detector file="e1output.xml" freq="60" friendlyPos="x" id="outgoing91" lane="317891653#3_2" pos="0"/>
    <e1Detector file="e1output.xml" freq="60" friendlyPos="x" id="outgoing92" lane="36907637#2_1" pos="0"/>
    <e1Detector file="e1output.xml" freq="60" friendlyPos="x" id="outgoing93" lane="-331667211#0_1" pos="0"/>
    <e1Detector file="e1output.xml" freq="60" friendlyPos="x" id="outgoing94" lane="-36907637#1_1" pos="0"/>
    <e1Detector file="e1output.xml" freq="60" friendlyPos="x" id="outgoing95" lane="331667211#1_1" pos="0"/>
    <e1Detector file="e1output.xml" freq="60" friendlyPos="x" id="outgoing96" lane="167456701#0_1" pos="0"/>
    <e1Detector file="e1output.xml" freq="60" friendlyPos="x" id="outgoing97" lane="741785865_1" pos="0"/>
    <e1Detector file="e1output.xml" freq="60" friendlyPos="x" id="outgoing98" lane="167457326_2" pos="44.94"/>
    <e1Detector file="e1output.xml" freq="60" friendlyPos="x" id="outgoing99" lane="167457326_1" pos="44.94"/>
    <e1Detector file="e1output.xml" freq="60" friendlyPos="x" id="outgoing100" lane="36897741#0_1" pos="0"/>
    <e1Detector file="e1output.xml" freq="60" friendlyPos="x" id="outgoing101" lane="167456701#0_2" pos="0"/>
    <e1Detector file="e1output.xml" freq="60" friendlyPos="x" id="outgoing102" lane="317371669_1" pos="0"/>
    <e1Detector file="e1output.xml" freq="60" friendlyPos="x" id="outgoing103" lane="-36907635#6_1" pos="0.5199999999999818"/>
    <e1Detector file="e1output.xml" freq="60" friendlyPos="x" id="outgoing104" lane="317371668#0_1" pos="0"/>
    <e1Detector file="e1output.xml" freq="60" friendlyPos="x" id="outgoing105" lane="36907635#8_1" pos="0"/>
    <e1Detector file="e1output.xml" freq="60" friendlyPos="x" id="outgoing106" lane="37555836#3_1" pos="0"/>
    <e1Detector file="e1output.xml" freq="60" friendlyPos="x" id="outgoing107" lane="-37555834#2_1" pos="0"/>
    <e1Detector file="e1output.xml" freq="60" friendlyPos="x" id="outgoing108" lane="-37555836#2_1" pos="0"/>
    <e1Detector file="e1output.xml" freq="60" friendlyPos="x" id="outgoing109" lane="37555834#3_1" pos="12.139999999999986"/>
    <e1Detector file="e1output.xml" freq="60" friendlyPos="x" id="outgoing110" lane="167458863#3_1" pos="0"/>
    <e1Detector file="e1output.xml" freq="60" friendlyPos="x" id="outgoing111" lane="-36907454#0_1" pos="0"/>
    <e1Detector file="e1output.xml" freq="60" friendlyPos="x" id="outgoing112" lane="167456692#1_2" pos="0"/>
    <e1Detector file="e1output.xml" freq="60" friendlyPos="x" id="outgoing113" lane="757229692_1" pos="163.10000000000002"/>
    <e1Detector file="e1output.xml" freq="60" friendlyPos="x" id="outgoing114" lane="167456692#1_1" pos="0"/>
    <e1Detector file="e1output.xml" freq="60" friendlyPos="x" id="outgoing115" lane="167458863#3_2" pos="0"/>
    <e1Detector file="e1output.xml" freq="60" friendlyPos="x" id="outgoing116" lane="172932752#15_1" pos="0"/>
    <e1Detector file="e1output.xml" freq="60" friendlyPos="x" id="outgoing117" lane="167459399#1_1" pos="0"/>
    <e1Detector file="e1output.xml" freq="60" friendlyPos="x" id="outgoing118" lane="167459399#1_2" pos="0"/>
    <e1Detector file="e1output.xml" freq="60" friendlyPos="x" id="outgoing119" lane="173008341#4_2" pos="0"/>
    <e1Detector file="e1output.xml" freq="60" friendlyPos="x" id="outgoing120" lane="-166753092#6_2" pos="51.70999999999998"/>
    <e1Detector file="e1output.xml" freq="60" friendlyPos="x" id="outgoing121" lane="173008341#4_1" pos="0"/>
    <e1Detector file="e1output.xml" freq="60" friendlyPos="x" id="outgoing122" lane="-166753092#6_1" pos="51.70999999999998"/>
    <e1Detector file="e1output.xml" freq="60" friendlyPos="x" id="outgoing123" lane="172932752#15_2" pos="0"/>
    <e1Detector file="e1output.xml" freq="60" friendlyPos="x" id="outgoing124" lane="244327259#1_1" pos="0"/>
    <e1Detector file="e1output.xml" freq="60" friendlyPos="x" id="outgoing125" lane="166753096#2_0" pos="0"/>
    <e1Detector file="e1output.xml" freq="60" friendlyPos="x" id="outgoing126" lane="166753096#2_1" pos="0"/>
    <e1Detector file="e1output.xml" freq="60" friendlyPos="x" id="outgoing127" lane="-325004668#2_1" pos="0"/>
    <e1Detector file="e1output.xml" freq="60" friendlyPos="x" id="outgoing128" lane="244327260#2_1" pos="0"/>
    <e1Detector file="e1output.xml" freq="60" friendlyPos="x" id="outgoing129" lane="166753090#1_1" pos="0"/>
    <e1Detector file="e1output.xml" freq="60" friendlyPos="x" id="outgoing130" lane="244327259#1_2" pos="0"/>
    <e1Detector file="e1output.xml" freq="60" friendlyPos="x" id="outgoing131" lane="244327260#2_0" pos="0"/>
    <e1Detector file="e1output.xml" freq="60" friendlyPos="x" id="outgoing132" lane="166753090#1_2" pos="0"/>
    <e1Detector file="e1output.xml" freq="60" friendlyPos="x" id="outgoing133" lane="167584434#1_1" pos="0"/>
    <e1Detector file="e1output.xml" freq="60" friendlyPos="x" id="outgoing134" lane="166954897#3_0" pos="0"/>
    <e1Detector file="e1output.xml" freq="60" friendlyPos="x" id="outgoing135" lane="166954897#3_1" pos="0"/>
    <e1Detector file="e1output.xml" freq="60" friendlyPos="x" id="outgoing136" lane="167584712_2" pos="0"/>
    <e1Detector file="e1output.xml" freq="60" friendlyPos="x" id="outgoing137" lane="244327260#6_1" pos="0"/>
    <e1Detector file="e1output.xml" freq="60" friendlyPos="x" id="outgoing138" lane="167584712_1" pos="0"/>
    <e1Detector file="e1output.xml" freq="60" friendlyPos="x" id="outgoing139" lane="167584434#1_2" pos="0"/>
    <e1Detector file="e1output.xml" freq="60" friendlyPos="x" id="outgoing140" lane="244327260#6_0" pos="0"/>
    <e1Detector file="e1output.xml" freq="60" friendlyPos="x" id="outgoing141" lane="167456692#0_1" pos="0"/>
    <e1Detector file="e1output.xml" freq="60" friendlyPos="x" id="outgoing142" lane="167461554#0_1" pos="0"/>
    <e1Detector file="e1output.xml" freq="60" friendlyPos="x" id="outgoing143" lane="167461554#0_2" pos="0"/>
    <e1Detector file="e1output.xml" freq="60" friendlyPos="x" id="outgoing144" lane="167461555_2" pos="28.620000000000005"/>
    <e1Detector file="e1output.xml" freq="60" friendlyPos="x" id="outgoing145" lane="167454053_2" pos="0"/>
    <e1Detector file="e1output.xml" freq="60" friendlyPos="x" id="outgoing146" lane="167461555_1" pos="28.620000000000005"/>
    <e1Detector file="e1output.xml" freq="60" friendlyPos="x" id="outgoing148" lane="167454053_1" pos="0"/>
    <e1Detector file="e1output.xml" freq="60" friendlyPos="x" id="outgoing150" lane="167456692#0_2" pos="0"/>
    <e1Detector file="e1output.xml" freq="60" friendlyPos="x" id="outgoing151" lane="-562729591_1" pos="0"/>
    <e1Detector file="e1output.xml" freq="60" friendlyPos="x" id="outgoing152" lane="167456695#0_2" pos="0"/>
    <e1Detector file="e1output.xml" freq="60" friendlyPos="x" id="outgoing153" lane="167456695#0_3" pos="0"/>
    <e1Detector file="e1output.xml" freq="60" friendlyPos="x" id="outgoing154" lane="-167457328_2" pos="0"/>
    <e1Detector file="e1output.xml" freq="60" friendlyPos="x" id="outgoing155" lane="167458866_1" pos="0"/>
    <e1Detector file="e1output.xml" freq="60" friendlyPos="x" id="outgoing156" lane="-167457328_1" pos="0"/>
    <e1Detector file="e1output.xml" freq="60" friendlyPos="x" id="outgoing157" lane="167458863#0_2" pos="0"/>
    <e1Detector file="e1output.xml" freq="60" friendlyPos="x" id="outgoing158" lane="167456695#0_4" pos="0"/>
    <e1Detector file="e1output.xml" freq="60" friendlyPos="x" id="outgoing159" lane="167458863#0_1" pos="0"/>
    <e1Detector file="e1output.xml" freq="60" friendlyPos="x" id="outgoing160" lane="167456695#0_1" pos="0"/>
    <e1Detector file="e1output.xml" freq="60" friendlyPos="x" id="outgoing161" lane="167462409_1" pos="0"/>
    <e1Detector file="e1output.xml" freq="60" friendlyPos="x" id="outgoing162" lane="167468377#0_1" pos="0"/>
    <e1Detector file="e1output.xml" freq="60" friendlyPos="x" id="outgoing163" lane="167468377#0_2" pos="0"/>
    <e1Detector file="e1output.xml" freq="60" friendlyPos="x" id="outgoing164" lane="317891653#0_2" pos="0"/>
    <e1Detector file="e1output.xml" freq="60" friendlyPos="x" id="outgoing165" lane="167461557#0_2" pos="0"/>
    <e1Detector file="e1output.xml" freq="60" friendlyPos="x" id="outgoing166" lane="167461557#0_1" pos="0"/>
    <e1Detector file="e1output.xml" freq="60" friendlyPos="x" id="outgoing167" lane="167462409_2" pos="0"/>
    <e1Detector file="e1output.xml" freq="60" friendlyPos="x" id="outgoing168" lane="317891653#0_1" pos="0"/>
</additional>
