<?xml version="1.0" encoding="UTF-8"?>

<!-- generated on Fri Feb  7 11:43:29 2020 by Eclipse SUMO polyconvert Version 1.2.0
<configuration xmlns:xsi="http://www.w3.org/2001/XMLSchema-instance" xsi:noNamespaceSchemaLocation="http://sumo.dlr.de/xsd/polyconvertConfiguration.xsd">

    <input>
        <net-file value="osm.net.xml"/>
        <osm-files value="osm_bbox.osm.xml"/>
        <osm.keep-full-type value="true"/>
        <type-file value="/usr/share/sumo/data/typemap/osmPolyconvert.typ.xml"/>
    </input>

    <output>
        <output-file value="osm.poly.xml"/>
    </output>

    <processing>
        <poi-layer-offset value="5"/>
    </processing>

    <report>
        <verbose value="true"/>
    </report>

</configuration>
-->

<additional xmlns:xsi="http://www.w3.org/2001/XMLSchema-instance" xsi:noNamespaceSchemaLocation="http://sumo.dlr.de/xsd/additional_file.xsd">
    <location netOffset="-248658.89,-2544568.61" convBoundary="-7708.12,-33745.05,10770.74,14083.66" origBoundary="72.465844,22.685912,72.651098,23.119157" projParameter="+proj=utm +zone=43 +ellps=WGS84 +datum=WGS84 +units=m +no_defs"/>

    <poly id="142502860" type="landuse.railway" color="194,194,130" fill="1" layer="-3.00" shape="2144.737351,3668.515423 2173.775794,3667.567807 2175.628043,3793.306438 2207.880637,3796.948015 2213.883607,3894.740365 2230.492263,3908.015451 2232.815427,3970.723061 2198.432354,3972.158266 2202.419729,4081.341137 2186.689250,4081.414030 2197.524726,4270.093214 2173.133992,4271.096669 2158.545921,4081.870399 2144.737351,3668.515423"/>
    <poly id="142691271" type="building.yes" color="255,230,230" fill="1" layer="-1.00" shape="2229.701548,2240.885370 2233.396790,2250.330699 2211.190232,2258.920535 2207.494793,2249.464133 2229.701548,2240.885370"/>
    <poly id="142691272" type="building.yes" color="255,230,230" fill="1" layer="-1.00" shape="2238.189043,2263.458548 2242.773564,2275.193764 2220.566856,2283.772512 2215.972065,2272.037472 2238.189043,2263.458548"/>
    <poly id="142748378" type="building.yes" color="255,230,230" fill="1" layer="-1.00" shape="2323.336667,2267.641417 2320.412496,2260.776002 2311.642814,2264.467062 2313.745482,2269.418183 2314.567173,2271.343553 2323.336667,2267.641417"/>
    <poly id="164775725" type="waterway.river" color="181,209,209" fill="0" layer="-4.00" shape="10482.876071,14083.658207 10535.312449,13518.422564 10536.274436,12735.529710 10375.117044,12065.723550 9992.195686,11508.241332 9607.799367,11139.574435 8811.924689,10989.235565 8103.708854,10961.758739 6941.114633,11196.523084 6063.149746,10763.294694 5786.454794,10568.840715 5510.962934,10167.953694 5460.060127,9916.136259 5462.355594,9308.379992 5402.317979,8991.131082 5106.117326,8533.161355 4886.106926,8306.375273 4556.242692,8065.723655 4024.687064,7826.246852 3767.292079,7660.488645 3432.898714,7383.635278 3294.507397,7200.558036 3214.817460,7095.155227 3023.879116,6791.823681 2897.800566,6476.892402 2644.091643,5411.258216 2715.227843,4421.099691 2817.806088,3620.477761 2891.584653,2935.954567 2835.081192,2409.195833 2602.842423,1911.917019 2403.750810,1582.927687 1237.557630,337.481308 789.114116,248.577515 634.423648,153.353515 484.319104,28.171286 102.746359,-237.926257 -270.738017,-514.555200 -335.746830,-882.192736 -643.024095,-1070.184485 -1049.330264,-1313.095584 -1456.879756,-1395.999586 -1922.050595,-1520.836706 -2411.767402,-1703.783529 -2818.698063,-1864.702071 -2826.089531,-1884.998261 -2935.114715,-2184.463788 -3136.856344,-2522.205946 -3130.855913,-2623.016915 -3287.991350,-2866.630984 -3417.765118,-2925.321172 -3462.246382,-3006.008921 -3691.561435,-3535.812109 -3623.907096,-4203.277615 -3202.677482,-4695.790603 -2830.514509,-4741.411577 -2501.001053,-4698.304676 -1871.345806,-4487.887372 -1459.179329,-4506.047903 -821.820727,-4910.013385 -625.694588,-5345.908416 -653.556882,-5660.073625 -755.599214,-6017.961044 -901.910059,-6318.919903 -1349.904915,-6749.690832 -1769.385096,-7164.076868 -2335.791474,-7575.993564 -2696.185561,-7834.046320 -2989.449609,-8132.547863 -3294.118099,-8436.492262 -3593.903993,-8785.467148 -4559.296441,-9387.320446 -5011.998342,-9750.565321 -5350.839803,-10065.164339 -5580.782014,-10623.308917 -5657.865824,-11167.200078 -5715.029498,-11868.839003 -5613.875241,-12195.726482 -5758.087760,-12980.948915 -5735.464046,-13204.682089 -5638.352199,-13321.292760 -5482.342011,-13471.745658 -5409.050100,-13613.257396 -5439.292824,-14409.225054 -5521.476861,-14973.084853 -5666.893726,-15281.874650 -5694.670460,-15404.506054 -5686.159951,-15621.704559 -5658.581787,-15892.933450 -5784.585882,-16434.375335 -5737.666321,-16697.677716 -5622.389897,-17194.849903 -5542.828071,-17469.929073 -5411.016114,-17793.538693 -4924.295644,-18130.700069 -3672.448055,-18575.509593 -2778.451796,-18762.138556 -1859.128762,-19318.710184 -1629.216973,-19471.741625 -1504.722375,-19979.676150 -1470.378120,-20443.281599 -1585.285055,-20990.312527 -1805.350707,-21284.804148 -2199.621587,-21481.305481 -2489.719554,-21524.708186 -2826.090069,-21604.282487 -3336.571906,-21421.642261 -3858.765204,-21090.024111 -4557.111394,-21128.396891 -4956.148836,-21196.595686 -5197.529049,-21384.492365 -5273.614582,-21742.960100 -5199.102324,-22167.818794 -5001.422888,-22317.950313 -4015.061548,-22958.435693 -3548.214579,-23599.952981 -2967.154370,-24102.979340 -2485.025415,-24497.670119 -1872.811400,-24980.181356 -1519.519225,-25496.793846 -1173.868580,-26123.568443 -1205.001820,-26459.281389 -1293.413180,-27059.527829 -1642.432458,-27270.836837 -2116.546609,-27753.674080 -2673.921798,-28211.432057 -2983.893297,-28467.110736 -3008.282080,-28703.227832 -2814.137874,-28960.313434 -2463.072654,-29466.131578 -2277.397199,-29683.001826 -1723.223342,-30054.412554 -1152.018086,-30520.427007 -947.522394,-30795.724935 -865.936791,-31013.076423 -929.827677,-31270.377225 -1006.730196,-31399.557297 -1187.162623,-31376.236651 -1393.585825,-31237.274678 -1698.428491,-31010.241231 -2242.992513,-30829.270993 -2675.704822,-30746.164261 -2878.853559,-30645.027985 -3178.449208,-30657.653276 -3281.264697,-30765.372072 -3478.142321,-31075.489024 -3588.354152,-31298.126273 -3644.137673,-31578.580790 -3672.517271,-31999.833138 -3532.179678,-32269.019934 -3399.777221,-32385.246102 -3044.012981,-32628.752069 -2482.763891,-32738.080311 -1822.474851,-32695.675686 -1199.550053,-32638.231434 -691.978815,-32600.040265 -412.656649,-32692.584059 -256.105744,-32776.670700 -177.285070,-32905.044349 -186.177199,-33249.675970 -185.876266,-33425.914686 -136.458035,-33687.933454 -135.682780,-33745.050976"/>
    <poly id="172153337" type="leisure.park" color="207,245,201" fill="1" layer="-2.00" shape="1253.632037,3817.965002 1255.640291,3806.164458 1261.566452,3798.686331 1270.304058,3794.983981 1278.583208,3795.156232 1293.258892,3802.534748 1325.669600,3831.024477 1410.526518,3888.412690 1447.030440,3910.230717 1478.822013,3927.440428 1497.174169,3939.444764 1502.293173,3948.157103 1498.866790,3958.562963 1452.699289,4025.834581 1420.907304,4067.072437 1389.353292,4105.348031 1369.054377,4124.832672 1363.303881,4126.845353 1357.522476,4126.387689 1352.860542,4125.412768 1348.907001,4120.791770 1340.964241,4105.101753 1312.823659,4052.197897 1299.063442,4018.511047 1280.288993,3963.334822 1267.828957,3910.446658 1259.702535,3867.137031 1253.632037,3817.965002"/>
    <poly id="185804909" type="building.yes" color="255,230,230" fill="1" layer="-1.00" shape="2197.243097,3867.815229 2183.096270,3868.160964 2184.227427,3915.276622 2186.058416,3990.944976 2194.741242,3990.734294 2194.419068,3977.510089 2196.930583,3977.446220 2196.466042,3958.119284 2191.391559,3958.236797 2190.351690,3914.764953 2198.368139,3914.565344 2197.243097,3867.815229"/>
    <poly id="185804919" type="building.roof" color="255,230,230" fill="1" layer="-1.00" shape="2174.004497,3906.737500 2181.118351,3906.530713 2185.711220,4060.810336 2178.597439,4061.017127 2174.004497,3906.737500"/>
    <poly id="190711667" type="amenity.college" color="237,199,199" fill="1" layer="-1.00" shape="1964.107746,3619.938884 1590.198314,3583.134038 1572.714405,3585.109234 1562.802112,3584.177309 1551.837087,3586.542618 1280.671743,3550.639049 1269.688623,3551.919018 1347.579365,3280.322321 1350.893165,3274.848955 1646.748505,3332.293072 1983.546289,3442.445986 1994.046976,3465.207173 1964.107746,3619.938884"/>
    <poly id="29350057" type="waterway.riverbank" color="181,209,209" fill="1" layer="-4.00" shape="10660.877933,12596.768399 10595.853993,12382.641016 10516.703762,12165.240238 10441.841351,11995.888823 10358.344427,11837.158019 10201.765837,11619.244893 10072.250190,11443.762926 9840.736821,11162.335390 9753.709184,11057.887193 9613.318392,10971.807448 9474.433371,10925.070148 9375.393036,10912.767269 9293.720264,10902.621454 9127.189473,10886.947493 8984.269913,10862.139856 8847.384905,10830.244468 8644.848176,10818.660684 8531.513167,10819.381073 8468.029872,10819.780245 8279.746703,10819.337617 8041.289644,10817.087544 7922.978482,10845.260265 7792.832658,10849.129498 7713.741756,10854.794049 7641.961643,10876.959443 7562.089234,10888.753544 7485.428533,10881.261351 7321.508795,10863.814049 7273.840056,10854.088262 7236.355278,10821.460815 7164.446891,10835.752957 6991.742028,10873.563235 6875.237904,10904.340860 6783.643566,10898.835845 6613.077133,10851.766789 6555.224795,10864.956647 6378.441485,10790.746681 6306.106026,10773.328546 6224.356452,10741.905023 6145.863684,10702.827776 6065.859866,10659.144312 6005.026094,10631.833011 5935.181755,10591.396128 5856.574867,10516.733698 5794.047296,10435.004652 5743.302673,10336.750684 5664.032470,10224.328755 5629.166798,10137.414895 5630.637086,10066.524087 5654.675835,9976.017017 5694.423600,9878.260755 5724.808422,9746.521393 5734.213009,9568.768495 5724.875529,9428.939233 5705.873488,9289.268590 5676.261628,9147.146171 5656.927213,9041.595785 5580.964759,8916.854018 5526.397485,8808.392022 5450.405541,8660.760254 5423.687005,8608.835798 5365.994105,8524.911969 5327.938893,8458.171776 5282.046983,8408.047240 5261.187520,8418.871585 5235.852657,8420.628647 5217.842973,8411.473565 5193.588748,8399.141523 5132.615214,8309.111918 5116.633720,8291.757735 5036.830747,8205.140423 4917.430823,8107.219812 4900.932469,8096.489002 4734.175734,7988.047574 4564.654166,7911.696366 4525.509301,7895.477835 4497.926762,7884.708492 4436.621411,7857.642580 4410.540717,7845.940071 4357.514296,7819.203310 4304.497756,7798.050829 4136.312245,7717.837237 3971.787375,7630.939082 3886.385153,7575.288059 3743.009816,7461.783233 3568.001541,7306.732108 3500.305958,7241.970436 3435.625527,7174.810163 3356.606348,7077.661262 3275.204374,6962.369876 3243.566092,6908.701530 3193.254686,6823.365627 3119.217872,6671.278091 3075.251974,6569.228423 3006.123342,6357.050649 2960.105658,6170.262099 2919.032519,5978.704821 2870.475091,5744.580401 2839.579461,5586.227476 2826.522522,5467.876831 2819.127100,5389.807864 2809.046672,5286.476689 2809.133588,5255.839053 2809.532272,5122.750602 2815.357098,4977.982570 2821.390329,4905.796149 2825.917056,4851.606454 2827.134826,4834.744688 2831.044121,4780.421195 2843.305309,4610.007257 2857.554625,4503.857601 2860.499812,4430.315283 2869.514198,4365.325901 2872.339529,4323.540814 2879.199347,4291.295246 2889.226024,4236.637837 2912.953581,4089.701116 2958.282504,3763.299200 2697.890564,3753.729015 2689.642489,3848.865516 2659.353960,4020.608800 2627.107585,4226.987552 2617.286293,4328.609952 2595.655830,4448.433230 2575.473186,4679.010498 2560.413043,4886.977280 2550.685976,5019.533743 2545.756067,5164.929956 2543.726326,5232.950627 2551.855757,5389.775289 2569.689219,5549.895905 2604.056963,5746.760526 2637.120071,5936.101329 2656.321896,6000.755981 2670.660088,6086.853614 2697.925078,6195.007635 2731.866709,6342.207707 2761.772436,6453.209857 2785.111235,6536.753872 2815.833261,6619.732249 2855.812924,6713.781193 2882.739905,6773.842633 2921.797154,6863.630092 2966.174807,6947.811567 3038.002602,7071.127021 3064.854610,7116.220824 3101.851785,7173.988272 3153.241682,7238.420171 3150.074292,7241.563966 3213.956841,7316.193175 3280.171293,7392.368416 3389.583455,7498.442762 3441.358991,7544.188190 3534.733397,7625.465918 3561.719377,7650.292887 3688.510551,7752.303257 3801.654638,7839.482423 3884.702062,7882.363342 3964.044443,7920.696613 4080.241535,7985.567567 4220.346057,8064.714601 4316.973176,8110.575666 4412.675761,8166.313657 4481.983903,8204.382724 4570.505809,8259.951901 4749.163237,8392.626506 4910.296708,8561.434738 4969.949106,8617.868909 5029.156495,8697.755596 5094.951813,8792.392192 5201.910882,8963.933282 5297.176012,9184.451723 5345.576349,9343.039859 5340.224117,9399.114330 5320.530354,9421.520197 5338.718775,9505.860235 5364.679701,9576.610504 5390.726305,9648.844090 5398.588856,9710.584771 5359.167567,9876.765795 5360.831208,10031.590572 5355.764857,10098.164116 5384.715892,10168.145002 5403.254102,10235.770881 5415.587517,10332.528001 5531.623869,10439.048432 5583.200608,10595.989190 5585.194621,10764.148591 5882.241432,11006.384490 6142.902352,11125.560053 6374.804285,11344.674145 6641.891754,11376.166449 6847.768712,11377.175403 7109.743418,11365.016649 7426.582684,11318.728351 7777.407531,11252.659046 8119.996405,11166.600487 8423.500307,11111.809095 8748.848923,11101.276231 8977.796724,11114.183543 9213.769972,11181.215076 9457.102004,11267.376265 9661.595678,11400.536659 9853.216929,11608.251017 10043.889139,11866.715753 10170.399255,12074.608961 10291.745792,12453.144118 10311.200643,12677.622505 10369.100967,13078.963570 10770.735691,13074.286700 10660.877933,12596.768399"/>
    <poly id="29350773" type="waterway.riverbank" color="181,209,209" fill="1" layer="-4.00" shape="965.833419,-257.336826 973.558285,-251.160948 1040.329823,-209.293501 1344.783436,109.298402 1540.478393,304.974987 1753.973052,522.096910 1945.020132,740.591068 2007.393368,818.877492 2103.003850,943.126447 2148.142444,1009.012669 2184.387763,1061.927790 2243.336162,1145.379625 2251.632306,1157.008992 2304.580876,1231.264391 2356.682167,1300.226661 2424.471892,1388.717886 2467.259759,1452.793407 2562.673989,1593.512610 2607.310227,1659.640831 2653.156132,1727.610549 2683.121390,1774.979762 2742.421178,1871.922587 2800.228257,1974.773738 2853.737812,2073.951137 2897.463903,2184.403739 2930.912665,2282.472880 2954.396043,2359.101041 2958.342055,2371.954971 2978.044474,2455.016674 2989.088929,2526.210962 3000.668467,2670.668084 3012.663447,2854.496478 3008.653514,3077.037138 3006.254514,3230.179621 3003.311261,3310.757437 2990.181164,3454.980933 2974.094030,3641.102457 2958.282504,3763.299200 2697.890564,3753.729015 2725.651329,3582.847773 2737.989834,3403.391440 2746.043532,3179.453591 2716.488374,3124.498997 2722.162304,2829.932557 2714.325452,2702.310305 2705.840146,2604.271241 2694.663809,2528.292652 2717.250366,2471.443965 2645.892157,2255.092880 2565.258266,2084.434340 2433.318162,1868.600218 2429.959206,1847.880932 2386.232691,1779.112159 2324.067908,1709.352854 2261.906149,1608.270563 2166.212919,1471.934195 2091.594227,1362.649364 1946.875038,1173.600191 1850.983508,1035.529018 1739.950482,901.798387 1638.499156,783.676002 1531.223231,681.794605 1467.897666,625.386592 1314.602728,493.912561 1181.091887,408.602364 1067.043131,365.427851 1023.530524,355.061511 958.479278,344.887975 899.767995,341.523013 843.738659,342.745043 844.542331,335.573909 824.938524,337.374382 804.873606,339.204730 782.708311,343.031304 757.655689,347.183065 736.870881,351.363411 603.320700,233.261396 581.496621,218.202059 607.031886,187.017597 623.081612,168.933004 634.423648,153.353515 658.342681,123.658703 965.833419,-257.336826"/>
    <poly id="310672768" type="building.yes" color="255,230,230" fill="1" layer="-1.00" shape="2210.314275,2507.747681 2192.710479,2463.642243 2235.803744,2446.694901 2255.068765,2492.024853 2210.314275,2507.747681"/>
    <poly id="310672930" type="building.yes" color="255,230,230" fill="1" layer="-1.00" shape="2368.101094,2467.690637 2355.903205,2435.971476 2414.986349,2415.923010 2427.201200,2448.672364 2368.101094,2467.690637"/>
    <poly id="312551684" type="leisure.park" color="207,245,201" fill="1" layer="-2.00" shape="726.781451,3239.597410 738.463412,3247.601630 745.471290,3255.152061 755.505381,3279.327566 762.072314,3294.253656 767.266691,3308.670818 773.548896,3322.515812 777.042197,3333.947583 782.485827,3346.709647 785.098311,3355.142330 789.882529,3359.738266 793.770369,3363.473840 799.462750,3367.179286 826.586615,3384.809229 854.077925,3400.494059 910.062504,3425.542539 913.608834,3423.566494 975.963382,3253.210723 985.456307,3228.986341 987.846288,3223.472894 985.564428,3218.868392 981.759732,3212.738078 970.737605,3203.703302 962.942012,3198.725425 957.673054,3195.810620 946.298619,3190.249814 925.790944,3181.295772 916.357951,3176.533601 907.215283,3172.575438 893.188886,3172.809506 885.230187,3174.039257 802.349630,3202.225488 770.698460,3217.523736 746.116315,3228.061439 726.781451,3239.597410"/>
    <poly id="316612690" type="building.college" color="255,230,230" fill="1" layer="-1.00" shape="1200.741736,3912.562266 1204.683746,3936.784139 1218.276859,3934.596328 1214.255162,3909.899339 1218.796460,3909.169900 1217.082930,3898.661286 1213.308734,3899.267135 1211.594462,3888.714213 1211.298343,3886.946333 1208.602055,3870.393286 1195.775990,3872.457508 1199.534944,3895.541181 1197.162043,3895.924228 1196.293263,3890.564861 1188.704041,3891.788330 1189.777504,3898.352016 1187.179598,3898.772057 1189.715934,3914.341640 1200.741736,3912.562266"/>
    <poly id="317354139" type="building.yes" color="255,230,230" fill="1" layer="-1.00" shape="2438.891107,4064.895371 2507.368137,4069.975259 2509.624468,4042.780740 2510.029946,4029.511249 2511.185550,4016.949516 2492.062586,4014.673991 2492.884953,4001.807543 2463.859579,3998.555072 2444.010485,3996.402451 2438.891107,4064.895371"/>
    <poly id="317354181" type="building.yes" color="255,230,230" fill="1" layer="-1.00" shape="2499.534886,4008.877081 2498.727951,3985.578135 2544.550113,3985.028665 2544.752916,4010.243385 2499.534886,4008.877081"/>
    <poly id="317354734" type="building.yes" color="255,230,230" fill="1" layer="-1.00" shape="2244.554835,3805.003657 2292.167014,3805.986041 2291.482847,3788.247208 2293.234088,3786.245895 2293.353687,3781.712182 2285.025177,3781.650992 2282.392398,3778.736330 2275.942175,3728.107996 2258.652008,3758.421882 2255.018592,3754.537715 2254.365086,3751.002957 2244.047527,3750.974810 2238.666174,3749.291350 2240.626800,3783.374188 2241.773044,3804.850402 2244.554835,3805.003657"/>
    <poly id="317354735" type="building.yes" color="255,230,230" fill="1" layer="-1.00" shape="2348.092197,3710.312610 2411.119246,3707.615875 2411.657698,3690.000809 2411.616716,3687.530647 2395.036745,3688.348652 2394.636783,3680.931682 2411.239550,3681.487220 2411.469206,3661.949357 2410.320739,3659.486489 2347.792544,3658.884163 2347.509674,3691.896215 2348.092197,3710.312610"/>
    <poly id="317354736" type="building.residential" color="255,230,230" fill="1" layer="-1.00" shape="2283.139073,3720.542756 2283.219522,3708.707961 2290.679118,3708.318216 2291.953657,3701.693370 2287.793153,3700.654428 2288.994697,3689.632026 2299.222551,3689.196337 2298.048395,3701.869206 2297.894757,3709.295367 2301.750854,3708.677362 2307.845589,3708.853201 2307.124693,3715.468856 2294.673253,3715.398530 2293.915774,3719.809870 2283.139073,3720.542756"/>
    <poly id="317355346" type="building.commercial" color="255,230,230" fill="1" layer="-1.00" shape="2542.609048,3608.230094 2542.259730,3538.919433 2577.667169,3540.448662 2576.138711,3608.471919 2542.609048,3608.230094"/>
    <poly id="317355347" type="building.commercial" color="255,230,230" fill="1" layer="-1.00" shape="2480.885956,3598.672282 2485.363734,3540.926615 2517.068303,3539.946554 2516.404036,3600.077637 2480.885956,3598.672282"/>
    <poly id="317355348" type="building.commercial" color="255,230,230" fill="1" layer="-1.00" shape="2462.391267,3591.644076 2464.080256,3569.810617 2467.787090,3564.519374 2473.310328,3562.389045 2476.232390,3562.340581 2476.130057,3591.416201 2462.391267,3591.644076"/>
    <poly id="317356287" type="amenity.college" color="237,199,199" fill="1" layer="-1.00" shape="2401.050782,3121.706065 2410.790987,3119.671984 2430.220504,3115.626845 2485.596936,3105.379151 2468.843985,3022.822913 2383.144704,3037.673199 2401.050782,3121.706065"/>
    <poly id="317356287#1" type="building.yes" color="255,230,230" fill="1" layer="-1.00" shape="2401.050782,3121.706065 2410.790987,3119.671984 2430.220504,3115.626845 2485.596936,3105.379151 2468.843985,3022.822913 2383.144704,3037.673199 2401.050782,3121.706065"/>
    <poly id="317356791" type="amenity.hospital" color="237,199,199" fill="1" layer="-1.00" shape="2378.018555,3339.477810 2390.336836,3345.722011 2403.344507,3337.883180 2411.063772,3341.389370 2411.547171,3348.273113 2413.117572,3355.149905 2416.142021,3361.271296 2422.822411,3367.686604 2431.686863,3374.076766 2437.228097,3377.973654 2446.365372,3378.553379 2618.961606,3397.829463 2619.739946,3378.581705 2621.741489,3366.925624 2621.513098,3353.145906 2615.877805,3321.295707 2590.870785,3162.080832 2588.109139,3136.542918 2584.155893,3074.383243 2573.760880,2976.276070 2571.024776,2917.010262 2565.616384,2873.489087 2561.451062,2798.535554 2500.754744,2805.945914 2462.189916,2808.324868 2454.701839,2850.320322 2447.987408,2868.458810 2439.586576,2891.278867 2428.800410,2910.648292 2414.632243,2938.206536 2395.291814,2970.515270 2381.669808,2995.748781 2300.839000,3129.085937 2262.177200,3196.019261 2295.745674,3244.890084 2322.126651,3283.996859 2344.155410,3308.051671 2359.621075,3323.495434 2369.155238,3334.395096 2378.018555,3339.477810"/>
    <poly id="317359485" type="leisure.garden" color="207,245,201" fill="1" layer="-2.00" shape="2584.870347,3761.508074 2635.276280,3760.273559 2644.600419,3596.423242 2648.817109,3532.787467 2632.924301,3529.904164 2608.708027,3550.781388 2598.144865,3558.834367 2595.035499,3562.431510 2591.313304,3624.330652 2588.139143,3671.650526 2584.870347,3761.508074"/>
    <poly id="317360797" type="building.commercial" color="255,230,230" fill="1" layer="-1.00" shape="2305.230457,3547.582661 2316.028240,3548.112576 2316.281469,3542.978327 2320.007306,3543.160253 2319.752972,3548.228040 2331.330706,3548.789343 2331.824023,3538.964265 2326.230141,3538.691457 2326.554877,3532.303980 2332.128256,3532.577130 2332.575315,3523.672461 2321.418114,3523.115257 2320.994651,3531.587414 2317.248122,3531.394751 2317.670664,3522.867208 2305.774517,3522.277958 2305.313403,3531.570663 2314.366186,3532.007660 2314.157009,3536.088576 2305.832735,3535.672729 2305.230457,3547.582661"/>
    <poly id="317373087" type="building.commercial" color="255,230,230" fill="1" layer="-1.00" shape="1671.011315,3671.759285 1678.923557,3620.293681 1692.807838,3620.793950 1684.687750,3673.947170 1671.011315,3671.759285"/>
    <poly id="317373088" type="amenity.community_centre" color="237,199,199" fill="1" layer="-1.00" shape="1263.387480,3758.424129 1270.038070,3763.642809 1291.668736,3766.196364 1297.950995,3729.006577 1275.816129,3726.971095 1270.927054,3723.451548 1268.310198,3722.121231 1263.387480,3758.424129"/>
    <poly id="317373088#1" type="building.yes" color="255,230,230" fill="1" layer="-1.00" shape="1263.387480,3758.424129 1270.038070,3763.642809 1291.668736,3766.196364 1297.950995,3729.006577 1275.816129,3726.971095 1270.927054,3723.451548 1268.310198,3722.121231 1263.387480,3758.424129"/>
    <poly id="317373089" type="building.commercial" color="255,230,230" fill="1" layer="-1.00" shape="1257.336543,3712.886049 1256.443124,3697.433120 1303.638815,3691.837784 1304.758100,3708.538998 1257.336543,3712.886049"/>
    <poly id="317385209" type="amenity.fuel" color="237,199,199" fill="1" layer="-1.00" shape="933.837642,3889.624670 943.451368,3910.771302 956.931739,3903.056151 969.555245,3896.230644 961.990177,3876.778310 933.837642,3889.624670"/>
    <poly id="317473068" type="building.commercial" color="255,230,230" fill="1" layer="-1.00" shape="686.209611,3365.535999 728.909983,3394.074389 732.780151,3396.137141 745.498107,3391.260013 767.219303,3364.183087 725.362546,3335.187294 709.380872,3322.734204 683.554194,3360.062443 682.142552,3362.124769 686.209611,3365.535999"/>
    <poly id="317473069" type="building.yes" color="255,230,230" fill="1" layer="-1.00" shape="781.131711,3433.910757 789.991487,3440.588187 798.318214,3433.767837 803.800168,3438.385366 815.136853,3425.719864 805.057871,3417.888281 794.683655,3409.574108 786.024800,3404.488859 775.484922,3418.193692 788.081571,3426.936110 781.131711,3433.910757"/>
    <poly id="317473070" type="building.yes" color="255,230,230" fill="1" layer="-1.00" shape="950.995988,3460.094249 979.475907,3473.580000 999.252275,3437.494511 969.657390,3421.113249 950.995988,3460.094249"/>
    <poly id="317473071" type="building.yes" color="255,230,230" fill="1" layer="-1.00" shape="948.523146,3547.912246 979.778329,3487.402944 946.336588,3469.734144 918.562732,3533.587023 948.523146,3547.912246"/>
    <poly id="317473927" type="building.commercial" color="255,230,230" fill="1" layer="-1.00" shape="752.834419,3391.458826 772.056092,3364.556609 784.169491,3372.609049 780.539496,3375.716696 786.429725,3378.986708 778.908305,3388.585809 773.935861,3385.001311 771.546518,3389.318140 777.134146,3392.892365 771.109823,3400.017763 768.300618,3397.615961 765.281007,3400.425337 752.834419,3391.458826"/>
    <poly id="317473965" type="building.commercial" color="255,230,230" fill="1" layer="-1.00" shape="845.059658,3649.105468 846.680885,3642.397082 847.298154,3640.669357 843.398354,3640.512860 843.692313,3632.319734 844.944131,3629.285039 847.480604,3625.796772 850.942389,3625.517377 849.589497,3621.883519 851.688139,3617.970438 853.826354,3616.427844 858.184787,3617.640380 862.981238,3619.288811 860.291919,3652.939745 851.607250,3652.442080 847.029344,3650.368961 845.059658,3649.105468"/>
    <poly id="317474278" type="building.commercial" color="255,230,230" fill="1" layer="-1.00" shape="886.899504,3604.651586 902.992568,3607.828894 905.502999,3589.261020 908.638654,3582.959493 915.199772,3573.587003 916.874839,3570.102048 898.040394,3558.139615 895.012261,3557.979634 892.228567,3560.175641 889.681819,3563.664069 886.364600,3598.411322 884.947751,3604.462562 886.899504,3604.651586"/>
    <poly id="317474279" type="building.commercial" color="255,230,230" fill="1" layer="-1.00" shape="873.081055,3687.972149 877.093478,3642.653914 911.400462,3647.045176 907.176142,3692.577450 902.182345,3692.007075 873.081055,3687.972149"/>
    <poly id="317474280" type="building.commercial" color="255,230,230" fill="1" layer="-1.00" shape="898.362627,3791.880645 934.206271,3782.673115 937.242269,3787.608503 947.231786,3785.181438 939.480986,3757.676955 936.529201,3758.402107 933.929348,3752.561950 943.199286,3721.150203 884.344759,3715.794696 885.018881,3729.146081 886.901783,3746.100492 888.243798,3758.299474 889.935052,3764.387475 892.831384,3773.856961 896.179863,3783.994787 898.362627,3791.880645"/>
    <poly id="317474315" type="amenity.fuel" color="237,199,199" fill="1" layer="-1.00" shape="904.626316,3815.077606 898.721669,3798.644612 915.919942,3792.473994 921.243306,3809.105056 904.626316,3815.077606"/>
    <poly id="317474742" type="building.commercial" color="255,230,230" fill="1" layer="-1.00" shape="973.002873,3924.604715 1012.191635,3903.230941 1020.271265,3919.106907 980.111748,3938.845925 973.002873,3924.604715"/>
    <poly id="317474744" type="building.commercial" color="255,230,230" fill="1" layer="-1.00" shape="987.158959,3992.411535 975.436159,3972.086772 1016.965856,3955.183540 1010.543400,3940.897623 987.172391,3952.655817 978.737865,3953.616501 976.275546,3952.327977 972.785570,3944.153685 1018.809672,3921.247598 1048.099553,3973.500294 1006.510498,3991.146801 1004.260870,3986.009921 987.158959,3992.411535"/>
    <poly id="317474878" type="building.school" color="255,230,230" fill="1" layer="-1.00" shape="1133.137926,3961.799437 1129.542555,3949.759915 1134.078207,3950.537439 1135.544617,3953.604334 1152.469643,3951.349813 1165.376371,3945.516962 1167.980821,3948.564883 1208.331080,3943.947558 1209.647346,3954.617916 1153.498690,3962.013881 1136.568043,3964.545499 1136.244482,3961.747626 1133.137926,3961.799437"/>
    <poly id="317474879" type="building.yes" color="255,230,230" fill="1" layer="-1.00" shape="1215.701592,3953.597327 1213.887751,3943.223347 1240.689819,3938.566076 1243.148242,3952.541426 1219.096777,3956.709633 1218.472861,3953.119000 1215.701592,3953.597327"/>
    <poly id="317476090" type="building.college" color="255,230,230" fill="1" layer="-1.00" shape="1130.863670,3948.419348 1145.683857,3945.402156 1141.344759,3923.203492 1128.698212,3925.575027 1129.332402,3927.935595 1125.803819,3930.354509 1128.234273,3945.105927 1129.049962,3946.665699 1130.863670,3948.419348"/>
    <poly id="317476092" type="building.college" color="255,230,230" fill="1" layer="-1.00" shape="1157.325971,3885.874007 1152.210328,3887.831854 1152.054595,3890.792841 1147.542109,3893.250316 1151.948716,3920.112583 1137.189927,3922.508255 1131.390585,3887.159690 1133.475579,3882.426950 1136.845397,3882.171309 1140.932444,3877.571383 1143.779929,3876.127802 1143.081546,3871.762805 1175.014439,3866.665301 1177.588381,3882.644221 1157.325971,3885.874007"/>
    <poly id="317476185" type="amenity.college" color="237,199,199" fill="1" layer="-1.00" shape="1177.665689,4067.481344 1272.691404,4032.346466 1248.985462,3960.033990 1133.380307,3975.102612 1140.227335,3997.636172 1177.665689,4067.481344"/>