<?xml version="1.0" encoding="UTF-8"?>

<!-- generated on Fri Feb  7 11:43:31 2020 by Eclipse SUMO duarouter Version 1.2.0
<configuration xmlns:xsi="http://www.w3.org/2001/XMLSchema-instance" xsi:noNamespaceSchemaLocation="http://sumo.dlr.de/xsd/duarouterConfiguration.xsd">

    <input>
        <net-file value="/home/shiraj/SomeMoreFiles/Some%20Files/sumo-master/tools/2020-02-07-11-43-25/osm.net.xml"/>
        <route-files value="/home/shiraj/SomeMoreFiles/Some%20Files/sumo-master/tools/2020-02-07-11-43-25/osm.passenger.trips.xml"/>
    </input>

    <output>
        <output-file value="/home/shiraj/SomeMoreFiles/Some%20Files/sumo-master/tools/2020-02-07-11-43-25/osm.passenger.rou.xml"/>
        <alternatives-output value="/home/shiraj/SomeMoreFiles/Some%20Files/sumo-master/tools/2020-02-07-11-43-25/osm.passenger.rou.alt.xml"/>
    </output>

    <time>
        <begin value="0"/>
        <end value="3600.0"/>
    </time>

    <report>
        <no-warnings value="true"/>
        <ignore-errors value="true"/>
        <no-step-log value="true"/>
    </report>

</configuration>
-->

<routes xmlns:xsi="http://www.w3.org/2001/XMLSchema-instance" xsi:noNamespaceSchemaLocation="http://sumo.dlr.de/xsd/routes_file.xsd">
    <vType id="veh_passenger" vClass="passenger"/>
    <vehicle id="veh0" type="veh_passenger" depart="0.00" departLane="best">
        <route edges="244329796#5 244329796#6 166825516#0 166825516#1 -166825516#1"/>
    </vehicle>
    <vehicle id="veh1" type="veh_passenger" depart="0.88" departLane="best">
        <route edges="-541908541 -541908542#0 68556150#5 167456088#1 167456694#2 167456694#3 167456694#4 167456693 167457328 167457327#3 167458866 167457476#1 167457476#2 167457476#3 167459400#0 167459400#1 167459400#2 -166753092#6 -166753092#4 -166753092#3 -167589223#5 -167589223#4 424729655 -330930077#2 -330930077#1 -330930077#0 -37573547#0"/>
    </vehicle>
    <vehicle id="veh2" type="veh_passenger" depart="1.77" departLane="best">
        <route edges="330927814 -330927814 -331667958#5 -331667958#4 -331667958#3 320244139#3 320244139#5 320244139#6 320244139#7 320244139#8 320244139#9 320244139#11"/>
    </vehicle>
    <vehicle id="veh3" type="veh_passenger" depart="2.65" departLane="best">
        <route edges="447096918 -447096918 335566452#1 335566452#2 166465027#5 37358087#4 37358087#5 37358087#6 37358087#7 734328902#0 734328902#1 734328902#2 734328902#3 734328902#4 167461554#0 167461554#1 167461554#2 167462409 173008341#1 -166753092#6 -166753092#4 -166753092#3 -166753092#2 -166753092#1 -166753092#0 166753093#0 166753093#1 166753096#0 166753096#1 166753096#2 166753096#3 324991562#0 -324991562#0"/>
    </vehicle>
    <vehicle id="veh4" type="veh_passenger" depart="3.53" departLane="best">
        <route edges="167456692#2 167456692#3 167457327#6 167457327#1 167457327#2 167457327#3 167457327#4 167458863#0 167458863#2 167458863#3 167458863#4 167458863#5 734328902#4 734328902#5 734328902#6 734328902#7 734328902#8 167454053 166465027#0 166465027#1 166465027#2 166465027#3 166465027#4 166465027#5 -167454805#3 -167454805#1 -167454805#0"/>
    </vehicle>
    <vehicle id="veh5" type="veh_passenger" depart="4.41" departLane="best">
        <route edges="-37555841#6 37555841#6 244329796#17 -37555836#5 -37555836#4 -37555836#3 -37555834#2 -37555834#1 -37555834#0 166753092#2 -167589223#5 -167589223#4 -167589223#3 -167589223#1 -167589223#0 167584434#8 167584434#9 167468131"/>
    </vehicle>
    <vehicle id="veh6" type="veh_passenger" depart="5.30" departLane="best">
        <route edges="-167186112#0 167186112#0 167186112#1 167186112#2 167584430#1 167584430#2 167584430#3 167584430#4 167584430#5 167584430#6 167589223#0 167589223#1 -167583193#2 167589230#0 167589230#1 167589230#2 167589230#3 -37555836#0"/>
    </vehicle>
    <vehicle id="veh7" type="veh_passenger" depart="6.18" departLane="best" departSpeed="max">
        <route edges="29375946#0 29375946#1 29375946#2 244329796#5 244329796#6 244329796#7 244329796#8 244329796#9 244329796#10 244329796#11 244329796#12 244329796#13 166800604#0 166800604#1 166800604#2 166800604#3 166800604#4 166800604#5 166800604#6 167585225#0 167585225#2 167585225#3 167585225#4"/>
    </vehicle>
    <vehicle id="veh8" type="veh_passenger" depart="7.06" departLane="best">
        <route edges="-37555842#2 -166754756#7 -166754756#6 324991740#0 324991740#1 324991740#2 324991740#3 324991740#4 166753911#0 166753911#1 166753911#2 172932752#5 172932752#6 172932752#7"/>
    </vehicle>
    <vehicle id="veh9" type="veh_passenger" depart="7.94" departLane="best">
        <route edges="36907637#4 -36907637#4 -36907637#3 -36907637#2 331667211#1 167456694#3 167456694#4 167456693 167457328 167457327#3 167458866 167457476#1 167457476#2 167457476#3 167459400#0 167459400#1 167459400#2 -166753092#6 -166753092#4 -166753092#3 -166753092#2 -166753092#1 -166753092#0"/>
    </vehicle>
    <vehicle id="veh10" type="veh_passenger" depart="8.83" departLane="best">
        <route edges="36907635#9 36907635#10 173008341#6 -166753911#2 -166753911#1 -166753911#0 244329796#15 244329796#16 244329796#17 244329796#18 244329796#19 244329796#20 244327260#0 244327260#1 244327260#2 -166752271#1 325004668#0 325004666#0 325004666#1"/>
    </vehicle>
    <vehicle id="veh11" type="veh_passenger" depart="9.71" departLane="best">
        <route edges="166753093#0 166753093#1 166753096#0 244327260#0 29376270#4 166753090#0 166753090#1 166753090#2 166753090#3 166753092#0 166753092#1 166753092#2 166753092#3 166753092#4 166753092#5 172932752#15 172932752#16 172932752#17 167461557#0 167461557#1 734328902#6 734328902#7 734328902#8 167454053 166465027#0 166465027#1 -335566458#1"/>
    </vehicle>
    <vehicle id="veh12" type="veh_passenger" depart="10.59" departLane="best">
        <route edges="599812416#0 330929812#1 37555823#3 37555823#4 167584434#6 167589223#0 167589223#1 167589223#3 257711537 166753092#1"/>
    </vehicle>
    <vehicle id="veh13" type="veh_passenger" depart="11.47" departLane="best">
        <route edges="-324991740#2 -324991740#1 -324991740#0 166754756#6 166754756#7 37555842#2 29376270#2 166753091#0 -325004668#2 -325004668#1 -325004668#0"/>
    </vehicle>
    <vehicle id="veh14" type="veh_passenger" depart="12.36" departLane="best">
        <route edges="36907637#1 331667211#1 167456694#3 167456694#4 167456693 167457328 167457327#3 167457327#4 167458863#0 167458863#2 167458863#3 167458863#4 167458863#5 734328902#4 734328902#5 734328902#6 167461555 167461551#3 167462414 167462415#1 -645851118#3 -320244139#13 -320244139#12 -320244139#11 -167468132#3 -330926172#1 330926173#0"/>
    </vehicle>
    <vehicle id="veh16" type="veh_passenger" depart="14.12" departLane="best">
        <route edges="166954897#8 166753090#0 166753090#1 166753090#2 166753090#3 166753092#0 -257711537 -167589223#3 -167589223#1 167589223#1"/>
    </vehicle>
    <vehicle id="veh17" type="veh_passenger" depart="15.01" departLane="best">
        <route edges="37555809#3 167584430#6 167589223#0 167589223#1 167589223#3 257711537 -166753092#0 166753093#0 166753093#1 244327259#0 244327259#1 244327259#2 244327259#3"/>
    </vehicle>
    <vehicle id="veh18" type="veh_passenger" depart="15.89" departLane="best">
        <route edges="37555841#6 -37555841#6 -37555841#5 -37555841#4 -37555841#3 -37555841#2 324991740#4 166753911#0 166753911#1 166753911#2 172932752#5 172932752#6 172932752#7 172932752#8 172932752#9 172932752#10 172932752#11 172932752#12"/>
    </vehicle>
    <vehicle id="veh19" type="veh_passenger" depart="16.77" departLane="best">
        <route edges="325004668#1 -325004667#1 325004669#1 -167585225#5 -167585225#4 -167585225#3 -167585225#2"/>
    </vehicle>
    <vehicle id="veh20" type="veh_passenger" depart="17.65" departLane="best">
        <route edges="-37573550#1 -330930077#4 330930076#1 -167589223#1 -167589223#0 167584434#8 167584434#9 167468131 167468375#0 167468375#1 317891653#0 317891653#1 -645851118#3 -645851118#2"/>
    </vehicle>
    <vehicle id="veh21" type="veh_passenger" depart="18.54" departLane="best">
        <route edges="-320244139#8 -320244139#7 -320244139#6 -320244139#5 -320244139#4 331667958#3 331667958#4 331667958#5 331667958#7 37571582#1 331667964#1 37555823#2 37555823#3 -37573566#2"/>
    </vehicle>
    <vehicle id="veh22" type="veh_passenger" depart="19.42" departLane="best">
        <route edges="-325004669#1 325004669#1 -167585225#5 -167585225#4 -167585225#3 -167585225#2 29376270#1 -37555842#2 -166754756#7 -589495104"/>
    </vehicle>
    <vehicle id="veh23" type="veh_passenger" depart="20.30" departLane="best">
        <route edges="244329796#17 244327259#3 244327259#4 244327259#5 244327259#6 244327259#7 244327259#8 244327259#9 244327259#10 244327259#11 317368692 166830335#0"/>
    </vehicle>
    <vehicle id="veh24" type="veh_passenger" depart="21.18" departLane="best">
        <route edges="166849264#0 -166849264#0 166835325#0 166835325#1 244329796#5 244329796#6 244329796#7 244329796#8 172932752#1 172932752#2 172932752#3 172932752#4 172932752#5 172932752#6 172932752#7 172932752#8 172932752#9 172932752#10 172932752#11 172932752#12 172932752#13 172932752#14 172932752#15 37555839#1 37555840#0 37555840#1 -37555840#1"/>
    </vehicle>
    <vehicle id="veh25" type="veh_passenger" depart="22.07" departLane="best">
        <route edges="-451813964#1 451813964#1 172932752#8 172932752#9 172932752#10 172932752#11 172932752#12 173008341#5 -36907635#10 -36907635#9 -36907635#8 -36907635#6 331667211#0 -36907637#1 -541908331#0 541908331#0"/>
    </vehicle>
    <vehicle id="veh26" type="veh_passenger" depart="22.95" departLane="best" departSpeed="max">
        <route edges="29375467#0 29375467#1 29376270#1 -37555842#2 -166754756#7 -166754756#6 324991740#0 324991740#1 324991740#2 324991740#3 324991740#4 244327259#6 244327259#7 244327259#8 244327259#9 244327259#10 244327259#11 244327259#12 244327259#13"/>
    </vehicle>
    <vehicle id="veh27" type="veh_passenger" depart="23.83" departLane="best">
        <route edges="-36897743#0 37358087#3 37358087#4 37358087#5 37358087#6 37358087#7 734328902#0 734328902#1 734328902#2 734328902#3 734328902#4 734328902#5 734328902#6 167461555 167461551#3 167462414 167462415#1 -645851118#3 -320244139#13 -320244139#12 -320244139#11 -320244139#9 -320244139#8 330926172#0 330926172#1"/>
    </vehicle>
    <vehicle id="veh28" type="veh_passenger" depart="24.71" departLane="best">
        <route edges="-358333379#0 37358087#6 37358087#7 734328902#0 734328902#1 734328902#2 734328902#3 734328902#4 167461554#0 167461554#1 167461554#2 167468377#0 167468377#1 167468130 167468378#0 167468378#1 167584432#0 167584432#1 167584432#2 -37573547#1 -37573547#0 166954897#5 166954897#6 166954897#7"/>
    </vehicle>
    <vehicle id="veh29" type="veh_passenger" depart="25.60" departLane="best">
        <route edges="757211197 166830335#1 -166849264#0 166835325#0 166835325#1 244329796#5 244329796#6 244329796#7 244329796#8 244329796#9 244329796#10 244329796#11 244329796#12 244329796#13 244329796#14 244329796#15 244329796#16"/>
    </vehicle>
    <vehicle id="veh30" type="veh_passenger" depart="26.48" departLane="best">
        <route edges="167589230#3 -37555836#0 -37555838#1 -37555838#0 166753092#5 167459399#1 167459399#2 167459399#3 167457476#5 167457476#6 167457476#7 167458864 167457327#5 167457327#6 167456695#0 -451813960#1 324734208#1"/>
    </vehicle>
    <vehicle id="veh31" type="veh_passenger" depart="27.36" departLane="best">
        <route edges="37555834#4 -37555838#4 -37555838#3 -37555838#2 -37555838#1 -37555838#0 166753092#5 172932752#15 172932752#16 172932752#17 167461557#0 167461557#1 734328902#6 734328902#7 734328902#8 167454053 166465027#0 166465027#1 166465027#2 166465027#3 166465027#4 166465027#5 166465027#6 166465027#7 -335743402 335743402"/>
    </vehicle>
    <vehicle id="veh32" type="veh_passenger" depart="28.25" departLane="best">
        <route edges="-37573559 -323421325 -37573561#4 -37573561#3 -331667964#3 -331667964#2 -331667964#1 167584430#6 167584434#8 167584434#9 167468131 167468375#0 167468375#1 167461557#0 167461557#1 734328902#6 734328902#7 734328902#8 734328902#9 734328902#0 167452030#0 -358333263#1 358333381#0 358333381#1 358333381#2 -167454805#5"/>
    </vehicle>
    <vehicle id="veh33" type="veh_passenger" depart="29.13" departLane="best">
        <route edges="142748779#2 -142748779#2 167585225#8 167585225#9 167584711#0 167584434#1 758842950 451815501#0 -451815501#0"/>
    </vehicle>
    <vehicle id="veh34" type="veh_passenger" depart="30.01" departLane="best">
        <route edges="-37555839#2 -37555839#1 173008341#1 -166753092#6 -166753092#4 -166753092#3 -166753092#2 -166753092#1 -166753092#0 166753093#0 166753093#1 244327259#0 244327259#1 244327259#2 244329796#18 589495099"/>
    </vehicle>
    <vehicle id="veh35" type="veh_passenger" depart="30.89" departLane="best">
        <route edges="37573561#5 37555807#2 37555807#3 37555807#4 37555823#0 37555823#1 37555823#2 37555823#3 37555823#4 167584434#6 167584434#8 167584434#9 167468131 167468375#0 167468375#1 167461557#0 167461557#1 734328902#6 734328902#7 734328902#8 167454053 166465027#0 166465027#1 166465027#2"/>
    </vehicle>
    <vehicle id="veh36" type="veh_passenger" depart="31.78" departLane="best">
        <route edges="29375946#1 29375946#2 244329796#5 244329796#6 244329796#7 244329796#8 172932752#1 172932752#2 172932752#3 172932752#4 172932752#5 172932752#6 172932752#7 172932752#8 172932752#9 172932752#10 172932752#11 172932752#12 172932752#13 172932752#14 172932752#15 172932752#16 172932752#17 167461557#0 167461557#1 734328902#6 734328902#7 734328902#8 734328902#9 734328902#0 167452030#0 167452030#1 167452030#2 167452030#3"/>
    </vehicle>
    <vehicle id="veh37" type="veh_passenger" depart="32.66" departLane="best">
        <route edges="451815501#1 451815501#2 -167584433#1 -167584433#0 167584434#5 167584434#6 167584434#8 167584434#9 167468131 167468375#0 167468375#1 167461557#0 167461557#1 734328902#6 734328902#7 734328902#8 734328902#9 734328902#0 734328902#1 734328902#2 167456692#0 167456692#1 167456692#2 167456692#3 167457327#6 167457327#1 167457327#2 -167457328 167457328"/>
    </vehicle>
    <vehicle id="veh38" type="veh_passenger" depart="33.54" departLane="best">
        <route edges="-451813962#2 -451813962#1 -451813962#0 172932752#10 172932752#11 172932752#12 172932752#13 172932752#14 172932752#15 172932752#16 172932752#17 167461557#0 167461557#1 734328902#6 734328902#7 734328902#8 167454053 166465027#0 166465027#1 166465027#2 166465027#3 166465027#4 -335566452#2 -335566452#1 447096918 -447096918"/>
    </vehicle>
    <vehicle id="veh39" type="veh_passenger" depart="34.42" departLane="best">
        <route edges="167589365#0 167589230#1 166753092#4 166753092#5 173008341#4 173008341#5 172932752#6 -451813965 -451813964#0"/>
    </vehicle>
    <vehicle id="veh40" type="veh_passenger" depart="35.31" departLane="best">
        <route edges="172932752#5 172932752#6 172932752#7 172932752#8 172932752#9 172932752#10 172932752#11 172932752#12 172932752#13 172932752#14 172932752#15 172932752#16 172932752#17 317891653#0 -330926044 -320244139#12 -320244139#11 -320244139#9 -320244139#8 -320244139#7 -320244139#6 -330925509#2 451543628"/>
    </vehicle>
    <vehicle id="veh41" type="veh_passenger" depart="36.19" departLane="best">
        <route edges="167456089#0 167456089#1 167456089#2 167456089#3 167456088#0 167456088#1 167456694#2 -361576970 -331667211#0 36907635#6 36907635#8 36907635#9 36907635#10 173008341#6 -166753911#2 -166753911#1 -166753911#0 -324991740#4 -37555841#1 -37555841#0 166800604#3 -37555843#1"/>
    </vehicle>
    <vehicle id="veh42" type="veh_passenger" depart="37.07" departLane="best">
        <route edges="761196430 -761196430 -761196429#0 172932752#14 172932752#15 172932752#16 172932752#17 317891653#0 -330926044 -320244139#12 -320244139#11 -167468132#3 -167468132#1 -167468132#0 167468375#1"/>
    </vehicle>
    <vehicle id="veh43" type="veh_passenger" depart="37.95" departLane="best">
        <route edges="-324991562#4 -324991562#3 -324991562#2 -324991562#1 -324991562#0 166753096#4 166753096#5 167585225#2 167585225#3 -167585225#3"/>
    </vehicle>
    <vehicle id="veh44" type="veh_passenger" depart="38.84" departLane="best">
        <route edges="-330925771#2 330925771#2 -167468132#3 -167468132#1 -167468132#0 167468375#1 167468377#0 167468377#1 167468130 167468378#0 167468378#1 167584432#0 167584432#1 167584432#2 -37573547#1 -37573547#0 244327260#3"/>
    </vehicle>
    <vehicle id="veh45" type="veh_passenger" depart="39.72" departLane="best">
        <route edges="36877668#2 -167454805#6 -167454805#5 37358087#4 37358087#5 37358087#6 37358087#7 734328902#0 734328902#1 734328902#2 167456692#0 167456692#1 167456692#2 167456692#3 167457327#6 167456695#0 167456695#1 167456089#7 167456089#0 167456089#1 167456094"/>
    </vehicle>
    <vehicle id="veh46" type="veh_passenger" depart="40.60" departLane="best">
        <route edges="-167589230#8 -167589230#7 -37555834#3 -37555834#2 -37555834#1 -37555834#0 166753092#2 -167589223#5 -167589223#4 -167589223#3 -167589223#1 -167589223#0 37555809#2 37555809#3 37555809#4 37555809#5 37555809#6 37555809#7 -167186112#2 -167186112#1 -167186112#0 167186112#0"/>
    </vehicle>
    <vehicle id="veh47" type="veh_passenger" depart="41.48" departLane="best">
        <route edges="761196429#0 -761196429#0 172932752#14 -166753092#6 -166753092#4 -166753092#3 -167589223#5 -167589223#4 424729655 -330930077#2 -330930077#1 -37573550#2 -37573550#1 -37573550#0 167584432#2 167584432#3 166751738#3 167584433#1 167584433#2 167584433#3"/>
    </vehicle>
    <vehicle id="veh49" type="veh_passenger" depart="43.25" departLane="best">
        <route edges="-166753092#6 -166753092#4 -167589230#1 -167589230#0 167583193#2 -167589223#1 -167589223#0 167584434#8 -331667958#8 -331667958#7 -331667958#5 -331667958#4 -331667958#3 320244139#3 -330925510 330925510"/>
    </vehicle>
    <vehicle id="veh50" type="veh_passenger" depart="44.13" departLane="best">
        <route edges="320244139#13 645851118#3 167462415#3 167468377#0 167468377#1 167468130 167468378#0 167468378#1 167584434#8"/>
    </vehicle>
    <vehicle id="veh51" type="veh_passenger" depart="45.02" departLane="best">
        <route edges="-451813964#1 451813964#1 172932752#8 172932752#9 172932752#10 172932752#11 172932752#12 173008341#5 173008341#6 -166753911#2 -166753911#1 -166753911#0 244329796#15 244329796#16 244329796#17"/>
    </vehicle>
    <vehicle id="veh52" type="veh_passenger" depart="45.90" departLane="best">
        <route edges="-330925837#0 330925771#2 320244139#11 320244139#12 320244139#13 645851118#3 317891653#2 317891653#3 167461551#5 167461551#0 167461551#1 167461552#0 167461552#1 167461552#2 734328902#8 734328902#9 734328902#0 734328902#1 734328902#2 167456692#0 167456692#1 167456692#2 167456692#3 167457327#6 167457327#1 167457327#2 -167457328 -167457329 167456694#5 167456694#1 167456694#2 167456694#3 167456694#4"/>
    </vehicle>
    <vehicle id="veh53" type="veh_passenger" depart="46.78" departLane="best">
        <route edges="167457476#0 167457476#1 167457476#2 167457476#3 167459400#0 167459400#1 167459400#2 -166753092#6 -166753092#4 -167589230#1 -167589230#0 167583193#2 -167589223#1 -167589223#0 37555809#2 -37573566#3 -37573566#2 599812416#0 599812416#1"/>
    </vehicle>
    <vehicle id="veh54" type="veh_passenger" depart="47.66" departLane="best">
        <route edges="37573561#5 37555807#2 37555807#3 37555807#4 37555823#0 37555823#1 -331667964#1 167584430#6 167589223#0 167589223#1 -167583193#2 167589230#0 167589230#1 166753092#4 166753092#5 173008341#4 173008341#5 172932752#6 -451813965 -451813964#0"/>
    </vehicle>
    <vehicle id="veh55" type="veh_passenger" depart="48.55" departLane="best" departSpeed="max">
        <route edges="167462465 167461551#1 167461552#0 167461552#1 167461552#2 734328902#8 734328902#9 734328902#0 734328902#1 734328902#2 167456692#0 167456692#1 167456692#2 167456692#3 167457327#6 167457327#1 167457327#2 -167457328 -167457329 167456694#5 167456694#1 167456694#2 -361576970 -36907637#1 -36907637#0"/>
    </vehicle>
    <vehicle id="veh56" type="veh_passenger" depart="49.43" departLane="best">
        <route edges="451815499#2 167584434#3 167584434#4 167584432#4 330930084#0 330930084#1 166954897#4 37573547#0"/>
    </vehicle>
    <vehicle id="veh57" type="veh_passenger" depart="50.31" departLane="best">
        <route edges="-68556150#3 -36907637#5 -36907637#4 -36907637#3 -36907637#2 -331667211#0 36907635#6 36907635#8 36907635#9 36907635#10 173008341#6 -166753911#2 -166753911#1 -166753911#0 244329796#15"/>
    </vehicle>
    <vehicle id="veh59" type="veh_passenger" depart="52.08" departLane="best">
        <route edges="331667964#6 -331667964#6 -331667964#5 -167584433#3 -167584433#2 -167584433#1 -167584433#0 167584432#4 167584432#5 167584712"/>
    </vehicle>
    <vehicle id="veh60" type="veh_passenger" depart="52.96" departLane="best">
        <route edges="335566458#0 335566456 166465027#3 166465027#4 166465027#5 37358087#4 37358087#5 37358087#6 37358087#7 734328902#0 734328902#1 734328902#2 734328902#3 734328902#4 167461554#0 167461554#1 167461554#2 167468377#0 167468377#1 167468130 167468378#0 167468378#1 167584432#0 167584432#1 167584432#2 167584432#3 167584432#4 167584432#5 167584434#1"/>
    </vehicle>
    <vehicle id="veh61" type="veh_passenger" depart="53.84" departLane="best">
        <route edges="-142748414 142748414 -30392427#0 167585225#5 167585225#6 167585225#7 167585225#8 167585225#9 167584711#0 167584434#1 167584434#2 167584434#3 167584434#4 167584434#5 167584434#6 167584434#8 167584434#9 167468131 167468375#0 167468375#1 167461557#0 167461557#1 734328902#6 734328902#7 734328902#8 167454053 166465027#0 166465027#1 166465027#2 166465027#3 166465027#4 166465027#5 166465027#6 166465027#7 166465027#8"/>
    </vehicle>
    <vehicle id="veh63" type="veh_passenger" depart="55.61" departLane="best">
        <route edges="37573566#3 37555809#3 37555809#4 37555809#5 37555809#6 37555809#7 37555809#8 37555809#9"/>
    </vehicle>
    <vehicle id="veh64" type="veh_passenger" depart="56.49" departLane="best">
        <route edges="-758839296#1 758839296#1 167585225#7 167585225#8 166752271#0 166752271#1 166954897#5 166954897#6 166954897#7 166753097 166753090#1 166753090#2 166753090#3 166753092#0 166753092#1 166753092#2 166753092#3 -167589230#1"/>
    </vehicle>
    <vehicle id="veh65" type="veh_passenger" depart="57.37" departLane="best">
        <route edges="37573566#2 37555823#4 167584434#6 167589223#0 167589223#1 167589223#3 257711537 -166753092#0 166753093#0 166753093#1 244327259#0 244327259#1 244327259#2 166754756#1 166754756#2 166754756#3 589495107#0 589495106#0 589495106#1"/>
    </vehicle>
    <vehicle id="veh66" type="veh_passenger" depart="58.26" departLane="best">
        <route edges="-324985858#2 -37555834#1 -37555834#0 166753092#2 166753092#3 166753092#4 166753092#5 172932752#15 172932752#16 172932752#17 317891653#0 317891653#1 317891653#2 317891653#3 167461551#5 167461551#0 167461551#1 167461551#2"/>
    </vehicle>
    <vehicle id="veh67" type="veh_passenger" depart="59.14" departLane="best">
        <route edges="-30392427#0 167585225#5 167585225#6 167585225#7 167585225#8 167585225#9 167584711#0 167584434#1 167584434#2 167584434#3 167584434#4 167584434#5 167584434#6 167584434#8 167584434#9 167468131 167468375#0 167468375#1 317891653#0 317891653#1 317891653#2 335563875#0 335563875#1"/>
    </vehicle>
    <vehicle id="veh68" type="veh_passenger" depart="60.02" departLane="best">
        <route edges="335564503 335564509 166465027#4 166465027#5 37358087#4 37358087#5 37358087#6 37358087#7 734328902#0 734328902#1 734328902#2 734328902#3 734328902#4 167461554#0 167461554#1 167461554#2 167468377#0 167468377#1 167468130 167468378#0 167468378#1 167584432#0 167584432#1 167584432#2 167584432#3 167584432#4 330930084#0 -330930084#0"/>
    </vehicle>
    <vehicle id="veh69" type="veh_passenger" depart="60.90" departLane="best">
        <route edges="167459400#2 -166753092#6 -166753092#4 -166753092#3 -166753092#2 -166753092#1 -166753092#0 166753093#0 166753093#1 166753096#0 244327260#0 244327260#1 244327260#2 -166752271#1 -166752271#0 167585225#9"/>
    </vehicle>
    <vehicle id="veh70" type="veh_passenger" depart="61.79" departLane="best">
        <route edges="-451813963 451813961#1 172932752#12 172932752#13 172932752#14 -166753092#6 -166753092#4 -166753092#3 -167589223#5 -167589223#4 424729655 -330930077#2 -330930077#1 -37573550#2 -37573550#1 37573550#1"/>
    </vehicle>
    <vehicle id="veh71" type="veh_passenger" depart="62.67" departLane="best">
        <route edges="167456692#3 167457327#6 167457327#1 167457327#2 167457327#3 167458866 167457476#1 167456697 167456700#1 167456700#2 167456701#0 331656505 36907635#8 36907635#9 36907635#10 173008341#6 -166753911#2 -166753911#1 -166753911#0 -324991740#4 -37555841#1 -37555841#0"/>
    </vehicle>
    <vehicle id="veh72" type="veh_passenger" depart="63.55" departLane="best">
        <route edges="167584712 167584711#0 167584434#1 167584434#2 167584434#3 167584434#4 167584434#5 167584434#6 167584434#8 167584434#9 167468131 167468375#0 167468132#0 167468132#1 -330926172#1 330926173#0"/>
    </vehicle>
    <vehicle id="veh73" type="veh_passenger" depart="64.43" departLane="best">
        <route edges="-37555836#1 37555836#1 37555836#2 37555836#3 37555836#4 37555836#5 244329796#18 244329796#19 244329796#20 244327260#0 244327260#1 244327260#2 -166752271#1 -166752271#0 -167585225#8 -142748779#1 142748779#1"/>
    </vehicle>
    <vehicle id="veh74" type="veh_passenger" depart="65.32" departLane="best">
        <route edges="761196428 -761196428 173008341#5 173008341#6 173008341#7 173008338#1 244329796#8 244329796#9"/>
    </vehicle>
    <vehicle id="veh75" type="veh_passenger" depart="66.20" departLane="best">
        <route edges="167456700#2 167456700#3 167456700#4 741785865 -36907455 167459400#1 167459400#2 -166753092#6 -166753092#4 -167589230#1 -167589230#0 167583193#2 -167589223#1 -167589223#0 37555809#2 37555809#3 37555809#4 37555809#5 37555809#6 37555809#7 167584430#1"/>
    </vehicle>
    <vehicle id="veh76" type="veh_passenger" depart="67.08" departLane="best">
        <route edges="166753092#4 166753092#5 173008341#4 173008341#5 172932752#6"/>
    </vehicle>
    <vehicle id="veh77" type="veh_passenger" depart="67.96" departLane="best">
        <route edges="-37573561#0 37573561#0 -37573566#0 -167584433#2 -167584433#1 -167584433#0 167584432#4 167584432#5 167584712 -167585225#9 -167585225#8 -167585225#7 -167585225#6 -167585225#5 -167585225#4 -167585225#3 -167585225#2 -167585225#0 -166800604#6 -166800604#5 -37555844"/>
    </vehicle>
    <vehicle id="veh78" type="veh_passenger" depart="68.85" departLane="best">
        <route edges="-37573559 -323421325 -37573561#4 -37573561#3 331667964#4 -167584433#3 -167584433#2 -167584433#1 -167584433#0 167584432#4 330930084#0 330930084#1 166954897#4 166954897#5 166954897#6 166954897#7 166954897#8 166954897#9 244327259#0 244327259#1 244327259#2 244327259#3 244327259#4 244327259#5 166753911#0 166753911#1 166753911#2 172932752#5 172932752#6 172932752#7 172932752#8 172932752#9 172932752#10 451813961#0"/>
    </vehicle>
    <vehicle id="veh81" type="veh_passenger" depart="71.50" departLane="best">
        <route edges="-37555841#0 37555841#0 37555841#1 37555841#2 37555841#3 37555841#4 37555841#5 37555841#6 244329796#17 -37555836#5 -37555836#4 -37555836#3 -37555834#2 -37555834#1 -37555834#0 166753092#2 -167589223#5 -167589223#4 -167589223#3 -167589223#1 -167589223#0 167584434#8 -331667958#8 -331667958#7 -331667958#5 -331667958#4 -331667958#3"/>
    </vehicle>
    <vehicle id="veh83" type="veh_passenger" depart="73.26" departLane="best">
        <route edges="167459400#0 167459400#1 167459399#3 167457476#5 167459401 167458863#2 167458863#3 167458863#4 167458863#5 734328902#4 734328902#5 734328902#6 734328902#7 734328902#8 734328902#9 734328902#0 167452030#0 -358333263#1 358333381#0 358333381#1 358333381#2"/>
    </vehicle>
    <vehicle id="veh84" type="veh_passenger" depart="74.14" departLane="best">
        <route edges="36907637#1 331667211#1 167456694#3 167456694#4 167456693 167457328 167457327#3 167457327#4 167458863#0 167458863#2 167458863#3 167458863#4 167458863#5 734328902#4 167461554#0 167461554#1 167461554#2 167468377#0 167468377#1 167468130 167468378#0 167468378#1 37555809#2 -37573566#3 -37555823#3"/>
    </vehicle>
    <vehicle id="veh85" type="veh_passenger" depart="75.03" departLane="best">
        <route edges="-325004667#1 325004667#1 -325004668#1 -325004668#0 166752271#1 166954897#5 166954897#6 166954897#7 166753097 166753090#1 166753090#2 166753090#3 166753092#0 166753092#1 166753092#2 166753092#3 166753092#4 166753092#5 167459399#1 167459399#2 167459399#3 167457476#5 167457476#6 167457476#7 167458864 167457327#5 167457327#6 167457327#1 167457327#2 -167457328 -167457329 167456694#5 167456694#1 167456694#2 167456694#3 167456694#4 167456693"/>
    </vehicle>
    <vehicle id="veh86" type="veh_passenger" depart="75.91" departLane="best">
        <route edges="167456693 167457328 167457327#3 167458866 167457476#1 167457476#2 167457476#3 167457476#4 167457476#5 167457476#6"/>
    </vehicle>
    <vehicle id="veh87" type="veh_passenger" depart="76.79" departLane="best">
        <route edges="734328902#9 734328902#0 734328902#1 734328902#2 734328902#3 734328902#4 167461554#0 167461554#1 167461554#2 167468377#0 167468377#1 167468130 167468378#0 167468378#1 167584432#0 167584432#1 167584432#2 -37573547#1 -37573547#0 -166752271#1 325004668#0 325004668#1 325004668#2 -325004668#2"/>
    </vehicle>
    <vehicle id="veh88" type="veh_passenger" depart="77.67" departLane="best">
        <route edges="167456089#3 167456089#4 167456089#5 167456698#0 167456698#1 167457327#2 167457327#3 167458866 167457476#1 167457476#2 167457476#3 167459400#0 167459400#1 167459400#2 -166753092#6 -166753092#4 -166753092#3 166753092#3"/>