<additional xmlns:xsi="http://www.w3.org/2001/XMLSchema-instance" xsi:noNamespaceSchemaLocation="http://sumo.dlr.de/xsd/additional_file.xsd">
    <e1Detector file="e1output.xml" freq="60" friendlyPos="x" id="e1det_-166753092#4_1" lane="-166753092#4_1" pos="0"/>
    <e1Detector file="e1output.xml" freq="60" friendlyPos="x" id="e1det_-166753092#4_2" lane="-166753092#4_2" pos="0"/>
    <e1Detector file="e1output.xml" freq="60" friendlyPos="x" id="e1det_-167589230#2_1" lane="-167589230#2_1" pos="1.27"/>
    <e1Detector file="e1output.xml" freq="60" friendlyPos="x" id="e1det_166753092#3_1" lane="166753092#3_1" pos="13.1"/>
    <e1Detector file="e1output.xml" freq="60" friendlyPos="x" id="e1det_166753092#3_2" lane="166753092#3_2" pos="13.1"/>
    <e1Detector file="e1output.xml" freq="60" friendlyPos="x" id="e1det_167589230#1_1" lane="167589230#1_1" pos="0"/>
    <e1Detector file="e1output.xml" freq="60" friendlyPos="x" id="e1det_-166753911#0_1" lane="-166753911#0_1" pos="0"/>
    <e1Detector file="e1output.xml" freq="60" friendlyPos="x" id="e1det_244327259#5_1" lane="244327259#5_1" pos="81.16"/>
    <e1Detector file="e1output.xml" freq="60" friendlyPos="x" id="e1det_244327259#5_2" lane="244327259#5_2" pos="81.16"/>
    <e1Detector file="e1output.xml" freq="60" friendlyPos="x" id="e1det_244329796#14_1" lane="244329796#14_1" pos="38.99"/>
    <e1Detector file="e1output.xml" freq="60" friendlyPos="x" id="e1det_244329796#14_2" lane="244329796#14_2" pos="38.99"/>
    <e1Detector file="e1output.xml" freq="60" friendlyPos="x" id="e1det_324991740#4_1" lane="324991740#4_1" pos="162.23"/>
    <e1Detector file="e1output.xml" freq="60" friendlyPos="x" id="e1det_-167186112#1_1" lane="-167186112#1_1" pos="0"/>
    <e1Detector file="e1output.xml" freq="60" friendlyPos="x" id="e1det_-37555829#1_1" lane="-37555829#1_1" pos="84.59"/>
    <e1Detector file="e1output.xml" freq="60" friendlyPos="x" id="e1det_167186112#0_1" lane="167186112#0_1" pos="10.8"/>
    <e1Detector file="e1output.xml" freq="60" friendlyPos="x" id="e1det_37555829#0_1" lane="37555829#0_1" pos="564.59"/>
    <e1Detector file="e1output.xml" freq="60" friendlyPos="x" id="e1det_-167186112#4_1" lane="-167186112#4_1" pos="2.38"/>
    <e1Detector file="e1output.xml" freq="60" friendlyPos="x" id="e1det_167186112#2_1" lane="167186112#2_1" pos="39.93"/>
    <e1Detector file="e1output.xml" freq="60" friendlyPos="x" id="e1det_167584430#0_1" lane="167584430#0_1" pos="521.5"/>
    <e1Detector file="e1output.xml" freq="60" friendlyPos="x" id="e1det_37555809#7_1" lane="37555809#7_1" pos="18.61"/>
    <e1Detector file="e1output.xml" freq="60" friendlyPos="x" id="e1det_-167456093_1" lane="-167456093_1" pos="395.36"/>
    <e1Detector file="e1output.xml" freq="60" friendlyPos="x" id="e1det_-167456093_2" lane="-167456093_2" pos="395.36"/>
    <e1Detector file="e1output.xml" freq="60" friendlyPos="x" id="e1det_167456090#1_1" lane="167456090#1_1" pos="52.86"/>
    <e1Detector file="e1output.xml" freq="60" friendlyPos="x" id="e1det_167456090#1_2" lane="167456090#1_2" pos="52.86"/>
    <e1Detector file="e1output.xml" freq="60" friendlyPos="x" id="e1det_167456092#1_1" lane="167456092#1_1" pos="48.17"/>
    <e1Detector file="e1output.xml" freq="60" friendlyPos="x" id="e1det_167456092#1_2" lane="167456092#1_2" pos="48.17"/>
    <e1Detector file="e1output.xml" freq="60" friendlyPos="x" id="e1det_167456695#1_1" lane="167456695#1_1" pos="38.61"/>
    <e1Detector file="e1output.xml" freq="60" friendlyPos="x" id="e1det_167456695#1_2" lane="167456695#1_2" pos="38.61"/>
    <e1Detector file="e1output.xml" freq="60" friendlyPos="x" id="e1det_167456695#1_3" lane="167456695#1_3" pos="38.61"/>
    <e1Detector file="e1output.xml" freq="60" friendlyPos="x" id="e1det_167456695#1_4" lane="167456695#1_4" pos="38.61"/>
    <e1Detector file="e1output.xml" freq="60" friendlyPos="x" id="e1det_-167457329_1" lane="-167457329_1" pos="202.85"/>
    <e1Detector file="e1output.xml" freq="60" friendlyPos="x" id="e1det_-167457329_2" lane="-167457329_2" pos="202.85"/>
    <e1Detector file="e1output.xml" freq="60" friendlyPos="x" id="e1det_167456088#1_1" lane="167456088#1_1" pos="50.23"/>
    <e1Detector file="e1output.xml" freq="60" friendlyPos="x" id="e1det_167456088#1_2" lane="167456088#1_2" pos="50.23"/>
    <e1Detector file="e1output.xml" freq="60" friendlyPos="x" id="e1det_331667211#1_1" lane="331667211#1_1" pos="118.19"/>
    <e1Detector file="e1output.xml" freq="60" friendlyPos="x" id="e1det_36897741#1_1" lane="36897741#1_1" pos="170.59"/>
    <e1Detector file="e1output.xml" freq="60" friendlyPos="x" id="e1det_-167584433#0_1" lane="-167584433#0_1" pos="23.24"/>
    <e1Detector file="e1output.xml" freq="60" friendlyPos="x" id="e1det_166751738#1_1" lane="166751738#1_1" pos="58.67"/>
    <e1Detector file="e1output.xml" freq="60" friendlyPos="x" id="e1det_167584432#3_1" lane="167584432#3_1" pos="0"/>
    <e1Detector file="e1output.xml" freq="60" friendlyPos="x" id="e1det_167584432#3_2" lane="167584432#3_2" pos="0"/>
    <e1Detector file="e1output.xml" freq="60" friendlyPos="x" id="e1det_167584434#4_1" lane="167584434#4_1" pos="0"/>
    <e1Detector file="e1output.xml" freq="60" friendlyPos="x" id="e1det_167584434#4_2" lane="167584434#4_2" pos="0"/>
    <e1Detector file="e1output.xml" freq="60" friendlyPos="x" id="e1det_-167585225#2_1" lane="-167585225#2_1" pos="0"/>
    <e1Detector file="e1output.xml" freq="60" friendlyPos="x" id="e1det_-167585225#2_2" lane="-167585225#2_2" pos="0"/>
    <e1Detector file="e1output.xml" freq="60" friendlyPos="x" id="e1det_166753096#5_0" lane="166753096#5_0" pos="6.99"/>
    <e1Detector file="e1output.xml" freq="60" friendlyPos="x" id="e1det_166753096#5_1" lane="166753096#5_1" pos="6.99"/>
    <e1Detector file="e1output.xml" freq="60" friendlyPos="x" id="e1det_167585225#0_1" lane="167585225#0_1" pos="0"/>
    <e1Detector file="e1output.xml" freq="60" friendlyPos="x" id="e1det_167585225#0_2" lane="167585225#0_2" pos="0"/>
    <e1Detector file="e1output.xml" freq="60" friendlyPos="x" id="e1det_29375467#1_0" lane="29375467#1_0" pos="748.14"/>
    <e1Detector file="e1output.xml" freq="60" friendlyPos="x" id="e1det_29375467#1_1" lane="29375467#1_1" pos="748.14"/>
    <e1Detector file="e1output.xml" freq="60" friendlyPos="x" id="e1det_-167589223#0_1" lane="-167589223#0_1" pos="0"/>
    <e1Detector file="e1output.xml" freq="60" friendlyPos="x" id="e1det_167468378#1_1" lane="167468378#1_1" pos="0"/>
    <e1Detector file="e1output.xml" freq="60" friendlyPos="x" id="e1det_167468378#1_2" lane="167468378#1_2" pos="0"/>
    <e1Detector file="e1output.xml" freq="60" friendlyPos="x" id="e1det_167584430#6_1" lane="167584430#6_1" pos="160.53"/>
    <e1Detector file="e1output.xml" freq="60" friendlyPos="x" id="e1det_167584434#6_1" lane="167584434#6_1" pos="0"/>
    <e1Detector file="e1output.xml" freq="60" friendlyPos="x" id="e1det_167584434#6_2" lane="167584434#6_2" pos="0"/>
    <e1Detector file="e1output.xml" freq="60" friendlyPos="x" id="e1det_-167589223#3_1" lane="-167589223#3_1" pos="52.06"/>
    <e1Detector file="e1output.xml" freq="60" friendlyPos="x" id="e1det_167583193#2_1" lane="167583193#2_1" pos="0"/>
    <e1Detector file="e1output.xml" freq="60" friendlyPos="x" id="e1det_167589223#1_1" lane="167589223#1_1" pos="42.44"/>
    <e1Detector file="e1output.xml" freq="60" friendlyPos="x" id="e1det_330930076#1_1" lane="330930076#1_1" pos="0"/>
    <e1Detector file="e1output.xml" freq="60" friendlyPos="x" id="e1det_-320244139#11_1" lane="-320244139#11_1" pos="11.71"/>
    <e1Detector file="e1output.xml" freq="60" friendlyPos="x" id="e1det_167468132#3_1" lane="167468132#3_1" pos="18.33"/>
    <e1Detector file="e1output.xml" freq="60" friendlyPos="x" id="e1det_320244139#9_1" lane="320244139#9_1" pos="0"/>
    <e1Detector file="e1output.xml" freq="60" friendlyPos="x" id="e1det_330925771#2_1" lane="330925771#2_1" pos="27.0"/>
    <e1Detector file="e1output.xml" freq="60" friendlyPos="x" id="e1det_-320244139#4_1" lane="-320244139#4_1" pos="107.61"/>
    <e1Detector file="e1output.xml" freq="60" friendlyPos="x" id="e1det_-331667958#3_1" lane="-331667958#3_1" pos="0"/>
    <e1Detector file="e1output.xml" freq="60" friendlyPos="x" id="e1det_320244139#2_1" lane="320244139#2_1" pos="4.49"/>
    <e1Detector file="e1output.xml" freq="60" friendlyPos="x" id="e1det_331667958#2_1" lane="331667958#2_1" pos="9.48"/>
    <e1Detector file="e1output.xml" freq="60" friendlyPos="x" id="e1det_-331667211#0_1" lane="-331667211#0_1" pos="123.14"/>
    <e1Detector file="e1output.xml" freq="60" friendlyPos="x" id="e1det_-36907635#6_1" lane="-36907635#6_1" pos="189.52"/>
    <e1Detector file="e1output.xml" freq="60" friendlyPos="x" id="e1det_36907357#1_1" lane="36907357#1_1" pos="15.83"/>
    <e1Detector file="e1output.xml" freq="60" friendlyPos="x" id="e1det_36907635#5_1" lane="36907635#5_1" pos="4.39"/>
    <e1Detector file="e1output.xml" freq="60" friendlyPos="x" id="e1det_-331667958#8_1" lane="-331667958#8_1" pos="241.58"/>
    <e1Detector file="e1output.xml" freq="60" friendlyPos="x" id="e1det_-37571582#1_1" lane="-37571582#1_1" pos="76.2"/>
    <e1Detector file="e1output.xml" freq="60" friendlyPos="x" id="e1det_331667958#7_1" lane="331667958#7_1" pos="0"/>
    <e1Detector file="e1output.xml" freq="60" friendlyPos="x" id="e1det_37571582#0_1" lane="37571582#0_1" pos="68.92"/>
    <e1Detector file="e1output.xml" freq="60" friendlyPos="x" id="e1det_-331667964#2_1" lane="-331667964#2_1" pos="0"/>
    <e1Detector file="e1output.xml" freq="60" friendlyPos="x" id="e1det_-37555823#2_1" lane="-37555823#2_1" pos="0"/>
    <e1Detector file="e1output.xml" freq="60" friendlyPos="x" id="e1det_331667964#1_1" lane="331667964#1_1" pos="0"/>
    <e1Detector file="e1output.xml" freq="60" friendlyPos="x" id="e1det_37555823#1_1" lane="37555823#1_1" pos="47.31"/>
    <e1Detector file="e1output.xml" freq="60" friendlyPos="x" id="e1det_-331667964#4_1" lane="-331667964#4_1" pos="0"/>
    <e1Detector file="e1output.xml" freq="60" friendlyPos="x" id="e1det_-37573561#3_1" lane="-37573561#3_1" pos="0"/>
    <e1Detector file="e1output.xml" freq="60" friendlyPos="x" id="e1det_331667964#3_1" lane="331667964#3_1" pos="0"/>
    <e1Detector file="e1output.xml" freq="60" friendlyPos="x" id="e1det_37573561#2_1" lane="37573561#2_1" pos="0"/>
    <e1Detector file="e1output.xml" freq="60" friendlyPos="x" id="e1det_-335563875#0_1" lane="-335563875#0_1" pos="75.9"/>
    <e1Detector file="e1output.xml" freq="60" friendlyPos="x" id="e1det_-336337248_1" lane="-336337248_1" pos="196.87"/>
    <e1Detector file="e1output.xml" freq="60" friendlyPos="x" id="e1det_167462414_1" lane="167462414_1" pos="0"/>
    <e1Detector file="e1output.xml" freq="60" friendlyPos="x" id="e1det_167462414_2" lane="167462414_2" pos="0"/>
    <e1Detector file="e1output.xml" freq="60" friendlyPos="x" id="e1det_317891653#2_1" lane="317891653#2_1" pos="0"/>
    <e1Detector file="e1output.xml" freq="60" friendlyPos="x" id="e1det_317891653#2_2" lane="317891653#2_2" pos="0"/>
    <e1Detector file="e1output.xml" freq="60" friendlyPos="x" id="e1det_-361576970_1" lane="-361576970_1" pos="118.77"/>
    <e1Detector file="e1output.xml" freq="60" friendlyPos="x" id="e1det_-36907637#2_1" lane="-36907637#2_1" pos="14.93"/>
    <e1Detector file="e1output.xml" freq="60" friendlyPos="x" id="e1det_331667211#0_1" lane="331667211#0_1" pos="123.34"/>
    <e1Detector file="e1output.xml" freq="60" friendlyPos="x" id="e1det_36907637#1_1" lane="36907637#1_1" pos="16.58"/>
    <e1Detector file="e1output.xml" freq="60" friendlyPos="x" id="e1det_-36897741#0_1" lane="-36897741#0_1" pos="0"/>
    <e1Detector file="e1output.xml" freq="60" friendlyPos="x" id="e1det_167456691_1" lane="167456691_1" pos="0"/>
    <e1Detector file="e1output.xml" freq="60" friendlyPos="x" id="e1det_167456697_1" lane="167456697_1" pos="235.54"/>
    <e1Detector file="e1output.xml" freq="60" friendlyPos="x" id="e1det_167456697_2" lane="167456697_2" pos="235.54"/>
    <e1Detector file="e1output.xml" freq="60" friendlyPos="x" id="e1det_317766697#1_1" lane="317766697#1_1" pos="100.57"/>
    <e1Detector file="e1output.xml" freq="60" friendlyPos="x" id="e1det_317766697#1_2" lane="317766697#1_2" pos="100.57"/>
    <e1Detector file="e1output.xml" freq="60" friendlyPos="x" id="e1det_-36907635#8_1" lane="-36907635#8_1" pos="0"/>
    <e1Detector file="e1output.xml" freq="60" friendlyPos="x" id="e1det_317371668#2_1" lane="317371668#2_1" pos="0"/>
    <e1Detector file="e1output.xml" freq="60" friendlyPos="x" id="e1det_331656505_1" lane="331656505_1" pos="143.27"/>
    <e1Detector file="e1output.xml" freq="60" friendlyPos="x" id="e1det_36907635#6_1" lane="36907635#6_1" pos="189.35"/>
    <e1Detector file="e1output.xml" freq="60" friendlyPos="x" id="e1det_-37555834#3_1" lane="-37555834#3_1" pos="197.67"/>
    <e1Detector file="e1output.xml" freq="60" friendlyPos="x" id="e1det_-37555836#3_1" lane="-37555836#3_1" pos="0"/>
    <e1Detector file="e1output.xml" freq="60" friendlyPos="x" id="e1det_37555834#2_1" lane="37555834#2_1" pos="25.39"/>
    <e1Detector file="e1output.xml" freq="60" friendlyPos="x" id="e1det_37555836#2_1" lane="37555836#2_1" pos="0"/>
    <e1Detector file="e1output.xml" freq="60" friendlyPos="x" id="e1det_-757229692_1" lane="-757229692_1" pos="362.2"/>
    <e1Detector file="e1output.xml" freq="60" friendlyPos="x" id="e1det_167456692#0_1" lane="167456692#0_1" pos="155.02"/>
    <e1Detector file="e1output.xml" freq="60" friendlyPos="x" id="e1det_167456692#0_2" lane="167456692#0_2" pos="155.02"/>
    <e1Detector file="e1output.xml" freq="60" friendlyPos="x" id="e1det_167458863#2_1" lane="167458863#2_1" pos="0"/>
    <e1Detector file="e1output.xml" freq="60" friendlyPos="x" id="e1det_167458863#2_2" lane="167458863#2_2" pos="0"/>
    <e1Detector file="e1output.xml" freq="60" friendlyPos="x" id="e1det_36907454#0_1" lane="36907454#0_1" pos="177.11"/>
    <e1Detector file="e1output.xml" freq="60" friendlyPos="x" id="e1det_166753092#5_1" lane="166753092#5_1" pos="242.09"/>
    <e1Detector file="e1output.xml" freq="60" friendlyPos="x" id="e1det_166753092#5_2" lane="166753092#5_2" pos="242.09"/>
    <e1Detector file="e1output.xml" freq="60" friendlyPos="x" id="e1det_167459400#2_1" lane="167459400#2_1" pos="82.76"/>
    <e1Detector file="e1output.xml" freq="60" friendlyPos="x" id="e1det_167459400#2_2" lane="167459400#2_2" pos="82.76"/>
    <e1Detector file="e1output.xml" freq="60" friendlyPos="x" id="e1det_172932752#14_1" lane="172932752#14_1" pos="0"/>
    <e1Detector file="e1output.xml" freq="60" friendlyPos="x" id="e1det_172932752#14_2" lane="172932752#14_2" pos="0"/>
    <e1Detector file="e1output.xml" freq="60" friendlyPos="x" id="e1det_173008341#1_1" lane="173008341#1_1" pos="15.32"/>
    <e1Detector file="e1output.xml" freq="60" friendlyPos="x" id="e1det_173008341#1_2" lane="173008341#1_2" pos="15.32"/>
    <e1Detector file="e1output.xml" freq="60" friendlyPos="x" id="e1det_166753093#0_1" lane="166753093#0_1" pos="5.26"/>
    <e1Detector file="e1output.xml" freq="60" friendlyPos="x" id="e1det_166753093#0_2" lane="166753093#0_2" pos="5.26"/>
    <e1Detector file="e1output.xml" freq="60" friendlyPos="x" id="e1det_166954897#7_0" lane="166954897#7_0" pos="0"/>
    <e1Detector file="e1output.xml" freq="60" friendlyPos="x" id="e1det_166954897#7_1" lane="166954897#7_1" pos="0"/>
    <e1Detector file="e1output.xml" freq="60" friendlyPos="x" id="e1det_244329796#19_1" lane="244329796#19_1" pos="33.44"/>
    <e1Detector file="e1output.xml" freq="60" friendlyPos="x" id="e1det_244329796#19_2" lane="244329796#19_2" pos="33.44"/>
    <e1Detector file="e1output.xml" freq="60" friendlyPos="x" id="e1det_29376270#2_0" lane="29376270#2_0" pos="254.02"/>
    <e1Detector file="e1output.xml" freq="60" friendlyPos="x" id="e1det_29376270#2_1" lane="29376270#2_1" pos="254.02"/>
    <e1Detector file="e1output.xml" freq="60" friendlyPos="x" id="e1det_325004668#2_1" lane="325004668#2_1" pos="88.83"/>
    <e1Detector file="e1output.xml" freq="60" friendlyPos="x" id="e1det_166954897#0_0" lane="166954897#0_0" pos="138.59"/>
    <e1Detector file="e1output.xml" freq="60" friendlyPos="x" id="e1det_166954897#0_1" lane="166954897#0_1" pos="138.59"/>
    <e1Detector file="e1output.xml" freq="60" friendlyPos="x" id="e1det_167584432#5_1" lane="167584432#5_1" pos="67.6"/>
    <e1Detector file="e1output.xml" freq="60" friendlyPos="x" id="e1det_167584432#5_2" lane="167584432#5_2" pos="67.6"/>
    <e1Detector file="e1output.xml" freq="60" friendlyPos="x" id="e1det_167584711#0_1" lane="167584711#0_1" pos="65.6"/>
    <e1Detector file="e1output.xml" freq="60" friendlyPos="x" id="e1det_167584711#0_2" lane="167584711#0_2" pos="65.6"/>
    <e1Detector file="e1output.xml" freq="60" friendlyPos="x" id="e1det_244327260#3_0" lane="244327260#3_0" pos="170.62"/>
    <e1Detector file="e1output.xml" freq="60" friendlyPos="x" id="e1det_244327260#3_1" lane="244327260#3_1" pos="170.62"/>
    <e1Detector file="e1output.xml" freq="60" friendlyPos="x" id="e1det_167452029#4_1" lane="167452029#4_1" pos="238.68"/>
    <e1Detector file="e1output.xml" freq="60" friendlyPos="x" id="e1det_167452029#4_2" lane="167452029#4_2" pos="238.68"/>
    <e1Detector file="e1output.xml" freq="60" friendlyPos="x" id="e1det_167458863#5_1" lane="167458863#5_1" pos="21.58"/>
    <e1Detector file="e1output.xml" freq="60" friendlyPos="x" id="e1det_167458863#5_2" lane="167458863#5_2" pos="21.58"/>
    <e1Detector file="e1output.xml" freq="60" friendlyPos="x" id="e1det_167461552#2_1" lane="167461552#2_1" pos="76.6"/>
    <e1Detector file="e1output.xml" freq="60" friendlyPos="x" id="e1det_167461552#2_2" lane="167461552#2_2" pos="76.6"/>
    <e1Detector file="e1output.xml" freq="60" friendlyPos="x" id="e1det_167461557#1_1" lane="167461557#1_1" pos="14.64"/>
    <e1Detector file="e1output.xml" freq="60" friendlyPos="x" id="e1det_167461557#1_2" lane="167461557#1_2" pos="14.64"/>
    <e1Detector file="e1output.xml" freq="60" friendlyPos="x" id="e1det_37358087#7_1" lane="37358087#7_1" pos="108.15"/>
    <e1Detector file="e1output.xml" freq="60" friendlyPos="x" id="e1det_37358087#7_2" lane="37358087#7_2" pos="108.15"/>
    <e1Detector file="e1output.xml" freq="60" friendlyPos="x" id="e1det_167456692#2_1" lane="167456692#2_1" pos="21.06"/>
    <e1Detector file="e1output.xml" freq="60" friendlyPos="x" id="e1det_167456692#2_2" lane="167456692#2_2" pos="21.06"/>
    <e1Detector file="e1output.xml" freq="60" friendlyPos="x" id="e1det_167456698#1_1" lane="167456698#1_1" pos="0"/>
    <e1Detector file="e1output.xml" freq="60" friendlyPos="x" id="e1det_167456698#1_2" lane="167456698#1_2" pos="0"/>
    <e1Detector file="e1output.xml" freq="60" friendlyPos="x" id="e1det_167457328_1" lane="167457328_1" pos="0"/>
    <e1Detector file="e1output.xml" freq="60" friendlyPos="x" id="e1det_167457328_2" lane="167457328_2" pos="0"/>
    <e1Detector file="e1output.xml" freq="60" friendlyPos="x" id="e1det_167458864_1" lane="167458864_1" pos="0"/>
    <e1Detector file="e1output.xml" freq="60" friendlyPos="x" id="e1det_167458864_2" lane="167458864_2" pos="0"/>
    <e1Detector file="e1output.xml" freq="60" friendlyPos="x" id="e1det_548059341#1_0" lane="548059341#1_0" pos="0"/>
    <e1Detector file="e1output.xml" freq="60" friendlyPos="x" id="e1det_562729591_1" lane="562729591_1" pos="0"/>
    <e1Detector file="e1output.xml" freq="60" friendlyPos="x" id="e1det_167461554#2_1" lane="167461554#2_1" pos="165.25"/>
    <e1Detector file="e1output.xml" freq="60" friendlyPos="x" id="e1det_167461554#2_2" lane="167461554#2_2" pos="165.25"/>
    <e1Detector file="e1output.xml" freq="60" friendlyPos="x" id="e1det_167462415#3_1" lane="167462415#3_1" pos="215.31"/>
    <e1Detector file="e1output.xml" freq="60" friendlyPos="x" id="e1det_167462415#3_2" lane="167462415#3_2" pos="215.31"/>
    <e1Detector file="e1output.xml" freq="60" friendlyPos="x" id="e1det_167468375#1_1" lane="167468375#1_1" pos="0"/>
    <e1Detector file="e1output.xml" freq="60" friendlyPos="x" id="e1det_167468375#1_2" lane="167468375#1_2" pos="0"/>
    <e1Detector file="e1output.xml" freq="60" friendlyPos="x" id="e1det_172932752#17_1" lane="172932752#17_1" pos="50.22"/>
    <e1Detector file="e1output.xml" freq="60" friendlyPos="x" id="e1det_172932752#17_2" lane="172932752#17_2" pos="50.22"/>
</additional>
